
Error: measure  v_adc_at_7v  find(AT) : out of interval
 .meas dc v_adc_at_7v find v(adc_filt) at=7 failed!


Note: No compatibility mode selected!


Circuit: TB6: Airflow Pot Analog Path Verification

Doing analysis at TEMP = 27.000000 and TNOM = 27.000000

Using SPARSE 1.3 as Direct Linear Solver

No. of Data Rows : 141

  Measurements for DC Analysis

v_adc_at_0v         =  1.261169e-05
v_adc_at_2v5        =  1.249875e+00
v_adc_at_5v         =  2.499750e+00


Error: measure  v_adc_at_7v  find(AT) : out of interval
 .meas dc v_adc_at_7v find v(adc_filt) at=7 failed!

Doing analysis at TEMP = 27.000000 and TNOM = 27.000000

Using SPARSE 1.3 as Direct Linear Solver

No. of Data Rows : 141

  Measurements for DC Analysis

v_adc_at_0v         =  1.261169e-05
v_adc_at_2v5        =  1.249875e+00
v_adc_at_5v         =  2.499750e+00


Total analysis time (seconds) = 0.000944

Total elapsed time (seconds) = 0.005 

Total DRAM available = 24576.000 MB.
DRAM currently available =  123.141 MB.
Maximum ngspice program size =    9.938 MB.
Current ngspice program size =    9.938 MB.

