
Note: No compatibility mode selected!


Circuit: TB1: Blink Code Read Verification

Doing analysis at TEMP = 27.000000 and TNOM = 27.000000

Using SPARSE 1.3 as Direct Linear Solver
Operating point simulation skipped by 'uic',
  now using transient initial conditions.

No. of Data Rows : 50238

  Measurements for Transient Analysis

v_mcu_idle          =  6.287411e-02 from=  0.000000e+00 to=  4.000989e-01
v_mcu_blink1_peak   =  3.309370e+00 at=  5.002470e-01
v_mcu_blink2_peak   =  3.299989e+00 at=  1.699823e+00
v_mcu_blink3_peak   =  3.308658e+00 at=  2.100233e+00
t_rise              =  3.086530e-05 targ=  5.002143e-01 trig=  5.001835e-01
t_fall              =  -9.017592e-01 targ=  1.009624e-06 trig=  9.017603e-01


The file "results/tb1_blink_read.ps" may be printed on a postscript printer.
                       TB1: Blink Code Read Verification
                       Transient Analysis  Sat Mar 21 23:09:37  2026
--------------------------------------------------------------------------------
Index   time            v(diag_pin)     v(mcu_gpio)     
--------------------------------------------------------------------------------
0	1.000000e-06	6.360450e+00	3.382755e-01	
1	1.015161e-06	6.450347e+00	3.233190e-01	
2	1.045482e-06	6.617761e+00	2.867322e-01	
3	1.078382e-06	6.773457e+00	2.437504e-01	
4	1.116054e-06	6.923584e+00	1.971143e-01	
5	1.155309e-06	7.053189e+00	1.532808e-01	
6	1.223435e-06	7.227518e+00	1.114675e-01	
7	1.308588e-06	7.377848e+00	9.426734e-02	
8	1.425804e-06	7.505214e+00	8.737891e-02	
9	1.560064e-06	7.583576e+00	8.417266e-02	
10	1.722877e-06	7.629235e+00	8.146571e-02	
11	1.895049e-06	7.649689e+00	7.905549e-02	
12	2.170804e-06	7.661018e+00	7.606907e-02	
13	2.457461e-06	7.663274e+00	7.365907e-02	
14	3.030775e-06	7.663836e+00	7.028552e-02	
15	3.805029e-06	7.663731e+00	6.753836e-02	
16	5.353536e-06	7.663770e+00	6.481035e-02	
17	8.450551e-06	7.663744e+00	6.308880e-02	
18	1.204384e-05	7.663764e+00	6.290078e-02	
19	1.754694e-05	7.663748e+00	6.285556e-02	
20	2.578515e-05	7.663762e+00	6.288853e-02	
21	4.226158e-05	7.663749e+00	6.285943e-02	
22	7.521443e-05	7.663762e+00	6.288812e-02	
23	1.000000e-04	7.663749e+00	6.285978e-02	
24	1.065906e-04	7.663755e+00	6.287381e-02	
25	1.197717e-04	7.663756e+00	6.287400e-02	
26	1.461340e-04	7.663755e+00	6.287385e-02	
27	1.988586e-04	7.663756e+00	6.287399e-02	
28	2.988586e-04	7.663755e+00	6.287385e-02	
29	3.988586e-04	7.663756e+00	6.287399e-02	
30	4.988586e-04	7.663755e+00	6.287385e-02	
31	5.988586e-04	7.663756e+00	6.287399e-02	
32	6.988586e-04	7.663755e+00	6.287386e-02	
33	7.988586e-04	7.663756e+00	6.287399e-02	
34	8.988586e-04	7.663755e+00	6.287386e-02	
35	9.988586e-04	7.663756e+00	6.287398e-02	
36	1.098859e-03	7.663755e+00	6.287386e-02	
37	1.198859e-03	7.663756e+00	6.287398e-02	
38	1.298859e-03	7.663755e+00	6.287386e-02	
39	1.398859e-03	7.663756e+00	6.287398e-02	
40	1.498859e-03	7.663755e+00	6.287386e-02	
41	1.598859e-03	7.663756e+00	6.287398e-02	
42	1.698859e-03	7.663755e+00	6.287386e-02	
43	1.798859e-03	7.663756e+00	6.287398e-02	
44	1.898859e-03	7.663755e+00	6.287387e-02	
45	1.998859e-03	7.663756e+00	6.287398e-02	
46	2.098859e-03	7.663755e+00	6.287387e-02	
47	2.198859e-03	7.663756e+00	6.287398e-02	
48	2.298859e-03	7.663755e+00	6.287387e-02	
49	2.398859e-03	7.663756e+00	6.287398e-02	
50	2.498859e-03	7.663755e+00	6.287387e-02	
51	2.598859e-03	7.663756e+00	6.287397e-02	
52	2.698859e-03	7.663755e+00	6.287387e-02	
53	2.798859e-03	7.663756e+00	6.287397e-02	
54	2.898859e-03	7.663755e+00	6.287387e-02	

Index   time            v(diag_pin)     v(mcu_gpio)     
--------------------------------------------------------------------------------
55	2.998859e-03	7.663756e+00	6.287397e-02	
56	3.098859e-03	7.663755e+00	6.287387e-02	
57	3.198859e-03	7.663756e+00	6.287397e-02	
58	3.298859e-03	7.663755e+00	6.287387e-02	
59	3.398859e-03	7.663756e+00	6.287397e-02	
60	3.498859e-03	7.663755e+00	6.287387e-02	
61	3.598859e-03	7.663756e+00	6.287397e-02	
62	3.698859e-03	7.663755e+00	6.287387e-02	
63	3.798859e-03	7.663756e+00	6.287397e-02	
64	3.898859e-03	7.663755e+00	6.287387e-02	
65	3.998859e-03	7.663756e+00	6.287397e-02	
66	4.098859e-03	7.663755e+00	6.287387e-02	
67	4.198859e-03	7.663756e+00	6.287397e-02	
68	4.298859e-03	7.663755e+00	6.287387e-02	
69	4.398859e-03	7.663756e+00	6.287397e-02	
70	4.498859e-03	7.663755e+00	6.287387e-02	
71	4.598859e-03	7.663756e+00	6.287397e-02	
72	4.698859e-03	7.663755e+00	6.287387e-02	
73	4.798859e-03	7.663756e+00	6.287397e-02	
74	4.898859e-03	7.663755e+00	6.287387e-02	
75	4.998859e-03	7.663756e+00	6.287397e-02	
76	5.098859e-03	7.663755e+00	6.287387e-02	
77	5.198859e-03	7.663756e+00	6.287397e-02	
78	5.298859e-03	7.663755e+00	6.287387e-02	
79	5.398859e-03	7.663756e+00	6.287397e-02	
80	5.498859e-03	7.663755e+00	6.287387e-02	
81	5.598859e-03	7.663756e+00	6.287397e-02	
82	5.698859e-03	7.663755e+00	6.287387e-02	
83	5.798859e-03	7.663756e+00	6.287397e-02	
84	5.898859e-03	7.663755e+00	6.287387e-02	
85	5.998859e-03	7.663756e+00	6.287397e-02	
86	6.098859e-03	7.663755e+00	6.287387e-02	
87	6.198859e-03	7.663756e+00	6.287397e-02	
88	6.298859e-03	7.663755e+00	6.287387e-02	
89	6.398859e-03	7.663756e+00	6.287397e-02	
90	6.498859e-03	7.663755e+00	6.287387e-02	
91	6.598859e-03	7.663756e+00	6.287397e-02	
92	6.698859e-03	7.663755e+00	6.287387e-02	
93	6.798859e-03	7.663756e+00	6.287397e-02	
94	6.898859e-03	7.663755e+00	6.287387e-02	
95	6.998859e-03	7.663756e+00	6.287397e-02	
96	7.098859e-03	7.663755e+00	6.287388e-02	
97	7.198859e-03	7.663756e+00	6.287397e-02	
98	7.298859e-03	7.663755e+00	6.287388e-02	
99	7.398859e-03	7.663756e+00	6.287397e-02	
100	7.498859e-03	7.663755e+00	6.287388e-02	
101	7.598859e-03	7.663756e+00	6.287397e-02	
102	7.698859e-03	7.663755e+00	6.287388e-02	
103	7.798859e-03	7.663756e+00	6.287397e-02	
104	7.898859e-03	7.663755e+00	6.287388e-02	
105	7.998859e-03	7.663756e+00	6.287397e-02	
106	8.098859e-03	7.663755e+00	6.287388e-02	
107	8.198859e-03	7.663756e+00	6.287397e-02	
108	8.298859e-03	7.663755e+00	6.287388e-02	
109	8.398859e-03	7.663756e+00	6.287397e-02	
110	8.498859e-03	7.663755e+00	6.287388e-02	
111	8.598859e-03	7.663756e+00	6.287397e-02	
112	8.698859e-03	7.663755e+00	6.287388e-02	

Index   time            v(diag_pin)     v(mcu_gpio)     
--------------------------------------------------------------------------------
113	8.798859e-03	7.663756e+00	6.287397e-02	
114	8.898859e-03	7.663755e+00	6.287388e-02	
115	8.998859e-03	7.663756e+00	6.287397e-02	
116	9.098859e-03	7.663755e+00	6.287388e-02	
117	9.198859e-03	7.663756e+00	6.287397e-02	
118	9.298859e-03	7.663755e+00	6.287388e-02	
119	9.398859e-03	7.663756e+00	6.287396e-02	
120	9.498859e-03	7.663755e+00	6.287388e-02	
121	9.598859e-03	7.663756e+00	6.287396e-02	
122	9.698859e-03	7.663755e+00	6.287388e-02	
123	9.798859e-03	7.663756e+00	6.287396e-02	
124	9.898859e-03	7.663755e+00	6.287388e-02	
125	9.998859e-03	7.663756e+00	6.287396e-02	
126	1.009886e-02	7.663755e+00	6.287388e-02	
127	1.019886e-02	7.663756e+00	6.287396e-02	
128	1.029886e-02	7.663755e+00	6.287388e-02	
129	1.039886e-02	7.663756e+00	6.287396e-02	
130	1.049886e-02	7.663755e+00	6.287388e-02	
131	1.059886e-02	7.663756e+00	6.287396e-02	
132	1.069886e-02	7.663755e+00	6.287388e-02	
133	1.079886e-02	7.663756e+00	6.287396e-02	
134	1.089886e-02	7.663755e+00	6.287388e-02	
135	1.099886e-02	7.663756e+00	6.287396e-02	
136	1.109886e-02	7.663755e+00	6.287388e-02	
137	1.119886e-02	7.663756e+00	6.287396e-02	
138	1.129886e-02	7.663755e+00	6.287388e-02	
139	1.139886e-02	7.663756e+00	6.287396e-02	
140	1.149886e-02	7.663755e+00	6.287388e-02	
141	1.159886e-02	7.663756e+00	6.287396e-02	
142	1.169886e-02	7.663755e+00	6.287388e-02	
143	1.179886e-02	7.663756e+00	6.287396e-02	
144	1.189886e-02	7.663755e+00	6.287388e-02	
145	1.199886e-02	7.663756e+00	6.287396e-02	
146	1.209886e-02	7.663755e+00	6.287388e-02	
147	1.219886e-02	7.663756e+00	6.287396e-02	
148	1.229886e-02	7.663755e+00	6.287388e-02	
149	1.239886e-02	7.663756e+00	6.287396e-02	
150	1.249886e-02	7.663755e+00	6.287388e-02	
151	1.259886e-02	7.663756e+00	6.287396e-02	
152	1.269886e-02	7.663755e+00	6.287388e-02	
153	1.279886e-02	7.663756e+00	6.287396e-02	
154	1.289886e-02	7.663755e+00	6.287388e-02	
155	1.299886e-02	7.663756e+00	6.287396e-02	
156	1.309886e-02	7.663755e+00	6.287388e-02	
157	1.319886e-02	7.663756e+00	6.287396e-02	
158	1.329886e-02	7.663755e+00	6.287388e-02	
159	1.339886e-02	7.663756e+00	6.287396e-02	
160	1.349886e-02	7.663755e+00	6.287388e-02	
161	1.359886e-02	7.663756e+00	6.287396e-02	
162	1.369886e-02	7.663755e+00	6.287388e-02	
163	1.379886e-02	7.663756e+00	6.287396e-02	
164	1.389886e-02	7.663755e+00	6.287388e-02	
165	1.399886e-02	7.663756e+00	6.287396e-02	
166	1.409886e-02	7.663755e+00	6.287388e-02	
167	1.419886e-02	7.663756e+00	6.287396e-02	
168	1.429886e-02	7.663755e+00	6.287388e-02	
169	1.439886e-02	7.663756e+00	6.287396e-02	
170	1.449886e-02	7.663755e+00	6.287388e-02	

Index   time            v(diag_pin)     v(mcu_gpio)     
--------------------------------------------------------------------------------
171	1.459886e-02	7.663756e+00	6.287396e-02	
172	1.469886e-02	7.663755e+00	6.287388e-02	
173	1.479886e-02	7.663756e+00	6.287396e-02	
174	1.489886e-02	7.663755e+00	6.287388e-02	
175	1.499886e-02	7.663756e+00	6.287396e-02	
176	1.509886e-02	7.663755e+00	6.287388e-02	
177	1.519886e-02	7.663756e+00	6.287396e-02	
178	1.529886e-02	7.663755e+00	6.287388e-02	
179	1.539886e-02	7.663756e+00	6.287396e-02	
180	1.549886e-02	7.663755e+00	6.287388e-02	
181	1.559886e-02	7.663756e+00	6.287396e-02	
182	1.569886e-02	7.663755e+00	6.287388e-02	
183	1.579886e-02	7.663756e+00	6.287396e-02	
184	1.589886e-02	7.663755e+00	6.287388e-02	
185	1.599886e-02	7.663756e+00	6.287396e-02	
186	1.609886e-02	7.663755e+00	6.287388e-02	
187	1.619886e-02	7.663756e+00	6.287396e-02	
188	1.629886e-02	7.663755e+00	6.287388e-02	
189	1.639886e-02	7.663756e+00	6.287396e-02	
190	1.649886e-02	7.663755e+00	6.287388e-02	
191	1.659886e-02	7.663756e+00	6.287396e-02	
192	1.669886e-02	7.663755e+00	6.287388e-02	
193	1.679886e-02	7.663756e+00	6.287396e-02	
194	1.689886e-02	7.663755e+00	6.287388e-02	
195	1.699886e-02	7.663756e+00	6.287396e-02	
196	1.709886e-02	7.663755e+00	6.287388e-02	
197	1.719886e-02	7.663756e+00	6.287396e-02	
198	1.729886e-02	7.663755e+00	6.287388e-02	
199	1.739886e-02	7.663756e+00	6.287396e-02	
200	1.749886e-02	7.663755e+00	6.287388e-02	
201	1.759886e-02	7.663756e+00	6.287396e-02	
202	1.769886e-02	7.663755e+00	6.287388e-02	
203	1.779886e-02	7.663756e+00	6.287396e-02	
204	1.789886e-02	7.663755e+00	6.287388e-02	
205	1.799886e-02	7.663756e+00	6.287396e-02	
206	1.809886e-02	7.663755e+00	6.287388e-02	
207	1.819886e-02	7.663756e+00	6.287396e-02	
208	1.829886e-02	7.663755e+00	6.287389e-02	
209	1.839886e-02	7.663756e+00	6.287396e-02	
210	1.849886e-02	7.663755e+00	6.287389e-02	
211	1.859886e-02	7.663756e+00	6.287396e-02	
212	1.869886e-02	7.663755e+00	6.287389e-02	
213	1.879886e-02	7.663756e+00	6.287396e-02	
214	1.889886e-02	7.663755e+00	6.287389e-02	
215	1.899886e-02	7.663756e+00	6.287396e-02	
216	1.909886e-02	7.663755e+00	6.287389e-02	
217	1.919886e-02	7.663756e+00	6.287396e-02	
218	1.929886e-02	7.663755e+00	6.287389e-02	
219	1.939886e-02	7.663756e+00	6.287396e-02	
220	1.949886e-02	7.663755e+00	6.287389e-02	
221	1.959886e-02	7.663756e+00	6.287396e-02	
222	1.969886e-02	7.663755e+00	6.287389e-02	
223	1.979886e-02	7.663756e+00	6.287396e-02	
224	1.989886e-02	7.663755e+00	6.287389e-02	
225	1.999886e-02	7.663756e+00	6.287396e-02	
226	2.009886e-02	7.663755e+00	6.287389e-02	
227	2.019886e-02	7.663756e+00	6.287396e-02	
228	2.029886e-02	7.663755e+00	6.287389e-02	

Index   time            v(diag_pin)     v(mcu_gpio)     
--------------------------------------------------------------------------------
229	2.039886e-02	7.663756e+00	6.287396e-02	
230	2.049886e-02	7.663755e+00	6.287389e-02	
231	2.059886e-02	7.663756e+00	6.287396e-02	
232	2.069886e-02	7.663755e+00	6.287389e-02	
233	2.079886e-02	7.663756e+00	6.287396e-02	
234	2.089886e-02	7.663755e+00	6.287389e-02	
235	2.099886e-02	7.663756e+00	6.287396e-02	
236	2.109886e-02	7.663755e+00	6.287389e-02	
237	2.119886e-02	7.663756e+00	6.287396e-02	
238	2.129886e-02	7.663755e+00	6.287389e-02	
239	2.139886e-02	7.663756e+00	6.287395e-02	
240	2.149886e-02	7.663755e+00	6.287389e-02	
241	2.159886e-02	7.663756e+00	6.287395e-02	
242	2.169886e-02	7.663755e+00	6.287389e-02	
243	2.179886e-02	7.663756e+00	6.287395e-02	
244	2.189886e-02	7.663755e+00	6.287389e-02	
245	2.199886e-02	7.663756e+00	6.287395e-02	
246	2.209886e-02	7.663755e+00	6.287389e-02	
247	2.219886e-02	7.663756e+00	6.287395e-02	
248	2.229886e-02	7.663755e+00	6.287389e-02	
249	2.239886e-02	7.663756e+00	6.287395e-02	
250	2.249886e-02	7.663755e+00	6.287389e-02	
251	2.259886e-02	7.663756e+00	6.287395e-02	
252	2.269886e-02	7.663755e+00	6.287389e-02	
253	2.279886e-02	7.663756e+00	6.287395e-02	
254	2.289886e-02	7.663755e+00	6.287389e-02	
255	2.299886e-02	7.663756e+00	6.287395e-02	
256	2.309886e-02	7.663755e+00	6.287389e-02	
257	2.319886e-02	7.663756e+00	6.287395e-02	
258	2.329886e-02	7.663755e+00	6.287389e-02	
259	2.339886e-02	7.663756e+00	6.287395e-02	
260	2.349886e-02	7.663755e+00	6.287389e-02	
261	2.359886e-02	7.663756e+00	6.287395e-02	
262	2.369886e-02	7.663755e+00	6.287389e-02	
263	2.379886e-02	7.663756e+00	6.287395e-02	
264	2.389886e-02	7.663755e+00	6.287389e-02	
265	2.399886e-02	7.663756e+00	6.287395e-02	
266	2.409886e-02	7.663755e+00	6.287389e-02	
267	2.419886e-02	7.663756e+00	6.287395e-02	
268	2.429886e-02	7.663755e+00	6.287389e-02	
269	2.439886e-02	7.663756e+00	6.287395e-02	
270	2.449886e-02	7.663755e+00	6.287389e-02	
271	2.459886e-02	7.663756e+00	6.287395e-02	
272	2.469886e-02	7.663755e+00	6.287389e-02	
273	2.479886e-02	7.663756e+00	6.287395e-02	
274	2.489886e-02	7.663755e+00	6.287389e-02	
275	2.499886e-02	7.663756e+00	6.287395e-02	
276	2.509886e-02	7.663755e+00	6.287389e-02	
277	2.519886e-02	7.663756e+00	6.287395e-02	
278	2.529886e-02	7.663755e+00	6.287389e-02	
279	2.539886e-02	7.663756e+00	6.287395e-02	
280	2.549886e-02	7.663755e+00	6.287389e-02	
281	2.559886e-02	7.663756e+00	6.287395e-02	
282	2.569886e-02	7.663755e+00	6.287389e-02	
283	2.579886e-02	7.663756e+00	6.287395e-02	
284	2.589886e-02	7.663755e+00	6.287389e-02	
285	2.599886e-02	7.663756e+00	6.287395e-02	
286	2.609886e-02	7.663755e+00	6.287389e-02	

Index   time            v(diag_pin)     v(mcu_gpio)     
--------------------------------------------------------------------------------
287	2.619886e-02	7.663756e+00	6.287395e-02	
288	2.629886e-02	7.663755e+00	6.287389e-02	
289	2.639886e-02	7.663756e+00	6.287395e-02	
290	2.649886e-02	7.663755e+00	6.287389e-02	
291	2.659886e-02	7.663756e+00	6.287395e-02	
292	2.669886e-02	7.663755e+00	6.287389e-02	
293	2.679886e-02	7.663756e+00	6.287395e-02	
294	2.689886e-02	7.663755e+00	6.287389e-02	
295	2.699886e-02	7.663756e+00	6.287395e-02	
296	2.709886e-02	7.663755e+00	6.287389e-02	
297	2.719886e-02	7.663756e+00	6.287395e-02	
298	2.729886e-02	7.663755e+00	6.287389e-02	
299	2.739886e-02	7.663756e+00	6.287395e-02	
300	2.749886e-02	7.663755e+00	6.287389e-02	
301	2.759886e-02	7.663756e+00	6.287395e-02	
302	2.769886e-02	7.663755e+00	6.287389e-02	
303	2.779886e-02	7.663756e+00	6.287395e-02	
304	2.789886e-02	7.663755e+00	6.287389e-02	
305	2.799886e-02	7.663756e+00	6.287395e-02	
306	2.809886e-02	7.663755e+00	6.287389e-02	
307	2.819886e-02	7.663756e+00	6.287395e-02	
308	2.829886e-02	7.663755e+00	6.287389e-02	
309	2.839886e-02	7.663756e+00	6.287395e-02	
310	2.849886e-02	7.663755e+00	6.287389e-02	
311	2.859886e-02	7.663756e+00	6.287395e-02	
312	2.869886e-02	7.663755e+00	6.287389e-02	
313	2.879886e-02	7.663756e+00	6.287395e-02	
314	2.889886e-02	7.663755e+00	6.287389e-02	
315	2.899886e-02	7.663756e+00	6.287395e-02	
316	2.909886e-02	7.663755e+00	6.287389e-02	
317	2.919886e-02	7.663756e+00	6.287395e-02	
318	2.929886e-02	7.663755e+00	6.287389e-02	
319	2.939886e-02	7.663756e+00	6.287395e-02	
320	2.949886e-02	7.663755e+00	6.287389e-02	
321	2.959886e-02	7.663756e+00	6.287395e-02	
322	2.969886e-02	7.663755e+00	6.287389e-02	
323	2.979886e-02	7.663756e+00	6.287395e-02	
324	2.989886e-02	7.663755e+00	6.287389e-02	
325	2.999886e-02	7.663756e+00	6.287395e-02	
326	3.009886e-02	7.663755e+00	6.287389e-02	
327	3.019886e-02	7.663756e+00	6.287395e-02	
328	3.029886e-02	7.663755e+00	6.287389e-02	
329	3.039886e-02	7.663756e+00	6.287395e-02	
330	3.049886e-02	7.663755e+00	6.287389e-02	
331	3.059886e-02	7.663756e+00	6.287395e-02	
332	3.069886e-02	7.663755e+00	6.287389e-02	
333	3.079886e-02	7.663756e+00	6.287395e-02	
334	3.089886e-02	7.663755e+00	6.287389e-02	
335	3.099886e-02	7.663756e+00	6.287395e-02	
336	3.109886e-02	7.663755e+00	6.287389e-02	
337	3.119886e-02	7.663756e+00	6.287395e-02	
338	3.129886e-02	7.663755e+00	6.287389e-02	
339	3.139886e-02	7.663756e+00	6.287395e-02	
340	3.149886e-02	7.663755e+00	6.287389e-02	
341	3.159886e-02	7.663756e+00	6.287395e-02	
342	3.169886e-02	7.663755e+00	6.287389e-02	
343	3.179886e-02	7.663756e+00	6.287395e-02	
344	3.189886e-02	7.663755e+00	6.287389e-02	

Index   time            v(diag_pin)     v(mcu_gpio)     
--------------------------------------------------------------------------------
345	3.199886e-02	7.663756e+00	6.287395e-02	
346	3.209886e-02	7.663755e+00	6.287389e-02	
347	3.219886e-02	7.663756e+00	6.287395e-02	
348	3.229886e-02	7.663755e+00	6.287389e-02	
349	3.239886e-02	7.663756e+00	6.287395e-02	
350	3.249886e-02	7.663755e+00	6.287389e-02	
351	3.259886e-02	7.663756e+00	6.287395e-02	
352	3.269886e-02	7.663755e+00	6.287389e-02	
353	3.279886e-02	7.663756e+00	6.287395e-02	
354	3.289886e-02	7.663755e+00	6.287389e-02	
355	3.299886e-02	7.663756e+00	6.287395e-02	
356	3.309886e-02	7.663755e+00	6.287389e-02	
357	3.319886e-02	7.663756e+00	6.287395e-02	
358	3.329886e-02	7.663755e+00	6.287389e-02	
359	3.339886e-02	7.663756e+00	6.287395e-02	
360	3.349886e-02	7.663755e+00	6.287389e-02	
361	3.359886e-02	7.663756e+00	6.287395e-02	
362	3.369886e-02	7.663755e+00	6.287389e-02	
363	3.379886e-02	7.663756e+00	6.287395e-02	
364	3.389886e-02	7.663755e+00	6.287390e-02	
365	3.399886e-02	7.663756e+00	6.287395e-02	
366	3.409886e-02	7.663755e+00	6.287390e-02	
367	3.419886e-02	7.663756e+00	6.287395e-02	
368	3.429886e-02	7.663755e+00	6.287390e-02	
369	3.439886e-02	7.663756e+00	6.287395e-02	
370	3.449886e-02	7.663755e+00	6.287390e-02	
371	3.459886e-02	7.663756e+00	6.287395e-02	
372	3.469886e-02	7.663755e+00	6.287390e-02	
373	3.479886e-02	7.663756e+00	6.287395e-02	
374	3.489886e-02	7.663755e+00	6.287390e-02	
375	3.499886e-02	7.663756e+00	6.287395e-02	
376	3.509886e-02	7.663755e+00	6.287390e-02	
377	3.519886e-02	7.663756e+00	6.287395e-02	
378	3.529886e-02	7.663755e+00	6.287390e-02	
379	3.539886e-02	7.663756e+00	6.287395e-02	
380	3.549886e-02	7.663755e+00	6.287390e-02	
381	3.559886e-02	7.663756e+00	6.287395e-02	
382	3.569886e-02	7.663755e+00	6.287390e-02	
383	3.579886e-02	7.663756e+00	6.287395e-02	
384	3.589886e-02	7.663755e+00	6.287390e-02	
385	3.599886e-02	7.663756e+00	6.287395e-02	
386	3.609886e-02	7.663755e+00	6.287390e-02	
387	3.619886e-02	7.663756e+00	6.287395e-02	
388	3.629886e-02	7.663755e+00	6.287390e-02	
389	3.639886e-02	7.663756e+00	6.287395e-02	
390	3.649886e-02	7.663755e+00	6.287390e-02	
391	3.659886e-02	7.663756e+00	6.287395e-02	
392	3.669886e-02	7.663755e+00	6.287390e-02	
393	3.679886e-02	7.663756e+00	6.287395e-02	
394	3.689886e-02	7.663755e+00	6.287390e-02	
395	3.699886e-02	7.663756e+00	6.287395e-02	
396	3.709886e-02	7.663755e+00	6.287390e-02	
397	3.719886e-02	7.663756e+00	6.287395e-02	
398	3.729886e-02	7.663755e+00	6.287390e-02	
399	3.739886e-02	7.663756e+00	6.287395e-02	
400	3.749886e-02	7.663755e+00	6.287390e-02	
401	3.759886e-02	7.663756e+00	6.287395e-02	
402	3.769886e-02	7.663755e+00	6.287390e-02	

Index   time            v(diag_pin)     v(mcu_gpio)     
--------------------------------------------------------------------------------
403	3.779886e-02	7.663756e+00	6.287395e-02	
404	3.789886e-02	7.663755e+00	6.287390e-02	
405	3.799886e-02	7.663755e+00	6.287395e-02	
406	3.809886e-02	7.663755e+00	6.287390e-02	
407	3.819886e-02	7.663755e+00	6.287395e-02	
408	3.829886e-02	7.663755e+00	6.287390e-02	
409	3.839886e-02	7.663755e+00	6.287395e-02	
410	3.849886e-02	7.663755e+00	6.287390e-02	
411	3.859886e-02	7.663755e+00	6.287394e-02	
412	3.869886e-02	7.663755e+00	6.287390e-02	
413	3.879886e-02	7.663755e+00	6.287394e-02	
414	3.889886e-02	7.663755e+00	6.287390e-02	
415	3.899886e-02	7.663755e+00	6.287394e-02	
416	3.909886e-02	7.663755e+00	6.287390e-02	
417	3.919886e-02	7.663755e+00	6.287394e-02	
418	3.929886e-02	7.663755e+00	6.287390e-02	
419	3.939886e-02	7.663755e+00	6.287394e-02	
420	3.949886e-02	7.663755e+00	6.287390e-02	
421	3.959886e-02	7.663755e+00	6.287394e-02	
422	3.969886e-02	7.663755e+00	6.287390e-02	
423	3.979886e-02	7.663755e+00	6.287394e-02	
424	3.989886e-02	7.663755e+00	6.287390e-02	
425	3.999886e-02	7.663755e+00	6.287394e-02	
426	4.009886e-02	7.663755e+00	6.287390e-02	
427	4.019886e-02	7.663755e+00	6.287394e-02	
428	4.029886e-02	7.663755e+00	6.287390e-02	
429	4.039886e-02	7.663755e+00	6.287394e-02	
430	4.049886e-02	7.663755e+00	6.287390e-02	
431	4.059886e-02	7.663755e+00	6.287394e-02	
432	4.069886e-02	7.663755e+00	6.287390e-02	
433	4.079886e-02	7.663755e+00	6.287394e-02	
434	4.089886e-02	7.663755e+00	6.287390e-02	
435	4.099886e-02	7.663755e+00	6.287394e-02	
436	4.109886e-02	7.663755e+00	6.287390e-02	
437	4.119886e-02	7.663755e+00	6.287394e-02	
438	4.129886e-02	7.663755e+00	6.287390e-02	
439	4.139886e-02	7.663755e+00	6.287394e-02	
440	4.149886e-02	7.663755e+00	6.287390e-02	
441	4.159886e-02	7.663755e+00	6.287394e-02	
442	4.169886e-02	7.663755e+00	6.287390e-02	
443	4.179886e-02	7.663755e+00	6.287394e-02	
444	4.189886e-02	7.663755e+00	6.287390e-02	
445	4.199886e-02	7.663755e+00	6.287394e-02	
446	4.209886e-02	7.663755e+00	6.287390e-02	
447	4.219886e-02	7.663755e+00	6.287394e-02	
448	4.229886e-02	7.663755e+00	6.287390e-02	
449	4.239886e-02	7.663755e+00	6.287394e-02	
450	4.249886e-02	7.663755e+00	6.287390e-02	
451	4.259886e-02	7.663755e+00	6.287394e-02	
452	4.269886e-02	7.663755e+00	6.287390e-02	
453	4.279886e-02	7.663755e+00	6.287394e-02	
454	4.289886e-02	7.663755e+00	6.287390e-02	
455	4.299886e-02	7.663755e+00	6.287394e-02	
456	4.309886e-02	7.663755e+00	6.287390e-02	
457	4.319886e-02	7.663755e+00	6.287394e-02	
458	4.329886e-02	7.663755e+00	6.287390e-02	
459	4.339886e-02	7.663755e+00	6.287394e-02	
460	4.349886e-02	7.663755e+00	6.287390e-02	

Index   time            v(diag_pin)     v(mcu_gpio)     
--------------------------------------------------------------------------------
461	4.359886e-02	7.663755e+00	6.287394e-02	
462	4.369886e-02	7.663755e+00	6.287390e-02	
463	4.379886e-02	7.663755e+00	6.287394e-02	
464	4.389886e-02	7.663755e+00	6.287390e-02	
465	4.399886e-02	7.663755e+00	6.287394e-02	
466	4.409886e-02	7.663755e+00	6.287390e-02	
467	4.419886e-02	7.663755e+00	6.287394e-02	
468	4.429886e-02	7.663755e+00	6.287390e-02	
469	4.439886e-02	7.663755e+00	6.287394e-02	
470	4.449886e-02	7.663755e+00	6.287390e-02	
471	4.459886e-02	7.663755e+00	6.287394e-02	
472	4.469886e-02	7.663755e+00	6.287390e-02	
473	4.479886e-02	7.663755e+00	6.287394e-02	
474	4.489886e-02	7.663755e+00	6.287390e-02	
475	4.499886e-02	7.663755e+00	6.287394e-02	
476	4.509886e-02	7.663755e+00	6.287390e-02	
477	4.519886e-02	7.663755e+00	6.287394e-02	
478	4.529886e-02	7.663755e+00	6.287390e-02	
479	4.539886e-02	7.663755e+00	6.287394e-02	
480	4.549886e-02	7.663755e+00	6.287390e-02	
481	4.559886e-02	7.663755e+00	6.287394e-02	
482	4.569886e-02	7.663755e+00	6.287390e-02	
483	4.579886e-02	7.663755e+00	6.287394e-02	
484	4.589886e-02	7.663755e+00	6.287390e-02	
485	4.599886e-02	7.663755e+00	6.287394e-02	
486	4.609886e-02	7.663755e+00	6.287390e-02	
487	4.619886e-02	7.663755e+00	6.287394e-02	
488	4.629886e-02	7.663755e+00	6.287390e-02	
489	4.639886e-02	7.663755e+00	6.287394e-02	
490	4.649886e-02	7.663755e+00	6.287390e-02	
491	4.659886e-02	7.663755e+00	6.287394e-02	
492	4.669886e-02	7.663755e+00	6.287390e-02	
493	4.679886e-02	7.663755e+00	6.287394e-02	
494	4.689886e-02	7.663755e+00	6.287390e-02	
495	4.699886e-02	7.663755e+00	6.287394e-02	
496	4.709886e-02	7.663755e+00	6.287390e-02	
497	4.719886e-02	7.663755e+00	6.287394e-02	
498	4.729886e-02	7.663755e+00	6.287390e-02	
499	4.739886e-02	7.663755e+00	6.287394e-02	
500	4.749886e-02	7.663755e+00	6.287390e-02	
501	4.759886e-02	7.663755e+00	6.287394e-02	
502	4.769886e-02	7.663755e+00	6.287390e-02	
503	4.779886e-02	7.663755e+00	6.287394e-02	
504	4.789886e-02	7.663755e+00	6.287390e-02	
505	4.799886e-02	7.663755e+00	6.287394e-02	
506	4.809886e-02	7.663755e+00	6.287390e-02	
507	4.819886e-02	7.663755e+00	6.287394e-02	
508	4.829886e-02	7.663755e+00	6.287390e-02	
509	4.839886e-02	7.663755e+00	6.287394e-02	
510	4.849886e-02	7.663755e+00	6.287390e-02	
511	4.859886e-02	7.663755e+00	6.287394e-02	
512	4.869886e-02	7.663755e+00	6.287390e-02	
513	4.879886e-02	7.663755e+00	6.287394e-02	
514	4.889886e-02	7.663755e+00	6.287390e-02	
515	4.899886e-02	7.663755e+00	6.287394e-02	
516	4.909886e-02	7.663755e+00	6.287390e-02	
517	4.919886e-02	7.663755e+00	6.287394e-02	
518	4.929886e-02	7.663755e+00	6.287390e-02	

Index   time            v(diag_pin)     v(mcu_gpio)     
--------------------------------------------------------------------------------
519	4.939886e-02	7.663755e+00	6.287394e-02	
520	4.949886e-02	7.663755e+00	6.287390e-02	
521	4.959886e-02	7.663755e+00	6.287394e-02	
522	4.969886e-02	7.663755e+00	6.287390e-02	
523	4.979886e-02	7.663755e+00	6.287394e-02	
524	4.989886e-02	7.663755e+00	6.287390e-02	
525	4.999886e-02	7.663755e+00	6.287394e-02	
526	5.009886e-02	7.663755e+00	6.287390e-02	
527	5.019886e-02	7.663755e+00	6.287394e-02	
528	5.029886e-02	7.663755e+00	6.287390e-02	
529	5.039886e-02	7.663755e+00	6.287394e-02	
530	5.049886e-02	7.663755e+00	6.287390e-02	
531	5.059886e-02	7.663755e+00	6.287394e-02	
532	5.069886e-02	7.663755e+00	6.287390e-02	
533	5.079886e-02	7.663755e+00	6.287394e-02	
534	5.089886e-02	7.663755e+00	6.287390e-02	
535	5.099886e-02	7.663755e+00	6.287394e-02	
536	5.109886e-02	7.663755e+00	6.287390e-02	
537	5.119886e-02	7.663755e+00	6.287394e-02	
538	5.129886e-02	7.663755e+00	6.287390e-02	
539	5.139886e-02	7.663755e+00	6.287394e-02	
540	5.149886e-02	7.663755e+00	6.287390e-02	
541	5.159886e-02	7.663755e+00	6.287394e-02	
542	5.169886e-02	7.663755e+00	6.287390e-02	
543	5.179886e-02	7.663755e+00	6.287394e-02	
544	5.189886e-02	7.663755e+00	6.287390e-02	
545	5.199886e-02	7.663755e+00	6.287394e-02	
546	5.209886e-02	7.663755e+00	6.287390e-02	
547	5.219886e-02	7.663755e+00	6.287394e-02	
548	5.229886e-02	7.663755e+00	6.287390e-02	
549	5.239886e-02	7.663755e+00	6.287394e-02	
550	5.249886e-02	7.663755e+00	6.287390e-02	
551	5.259886e-02	7.663755e+00	6.287394e-02	
552	5.269886e-02	7.663755e+00	6.287390e-02	
553	5.279886e-02	7.663755e+00	6.287394e-02	
554	5.289886e-02	7.663755e+00	6.287390e-02	
555	5.299886e-02	7.663755e+00	6.287394e-02	
556	5.309886e-02	7.663755e+00	6.287390e-02	
557	5.319886e-02	7.663755e+00	6.287394e-02	
558	5.329886e-02	7.663755e+00	6.287390e-02	
559	5.339886e-02	7.663755e+00	6.287394e-02	
560	5.349886e-02	7.663755e+00	6.287390e-02	
561	5.359886e-02	7.663755e+00	6.287394e-02	
562	5.369886e-02	7.663755e+00	6.287390e-02	
563	5.379886e-02	7.663755e+00	6.287394e-02	
564	5.389886e-02	7.663755e+00	6.287390e-02	
565	5.399886e-02	7.663755e+00	6.287394e-02	
566	5.409886e-02	7.663755e+00	6.287390e-02	
567	5.419886e-02	7.663755e+00	6.287394e-02	
568	5.429886e-02	7.663755e+00	6.287390e-02	
569	5.439886e-02	7.663755e+00	6.287394e-02	
570	5.449886e-02	7.663755e+00	6.287390e-02	
571	5.459886e-02	7.663755e+00	6.287394e-02	
572	5.469886e-02	7.663755e+00	6.287390e-02	
573	5.479886e-02	7.663755e+00	6.287394e-02	
574	5.489886e-02	7.663755e+00	6.287390e-02	
575	5.499886e-02	7.663755e+00	6.287394e-02	
576	5.509886e-02	7.663755e+00	6.287390e-02	

Index   time            v(diag_pin)     v(mcu_gpio)     
--------------------------------------------------------------------------------
577	5.519886e-02	7.663755e+00	6.287394e-02	
578	5.529886e-02	7.663755e+00	6.287390e-02	
579	5.539886e-02	7.663755e+00	6.287394e-02	
580	5.549886e-02	7.663755e+00	6.287390e-02	
581	5.559886e-02	7.663755e+00	6.287394e-02	
582	5.569886e-02	7.663755e+00	6.287390e-02	
583	5.579886e-02	7.663755e+00	6.287394e-02	
584	5.589886e-02	7.663755e+00	6.287390e-02	
585	5.599886e-02	7.663755e+00	6.287394e-02	
586	5.609886e-02	7.663755e+00	6.287390e-02	
587	5.619886e-02	7.663755e+00	6.287394e-02	
588	5.629886e-02	7.663755e+00	6.287390e-02	
589	5.639886e-02	7.663755e+00	6.287394e-02	
590	5.649886e-02	7.663755e+00	6.287390e-02	
591	5.659886e-02	7.663755e+00	6.287394e-02	
592	5.669886e-02	7.663755e+00	6.287390e-02	
593	5.679886e-02	7.663755e+00	6.287394e-02	
594	5.689886e-02	7.663755e+00	6.287390e-02	
595	5.699886e-02	7.663755e+00	6.287394e-02	
596	5.709886e-02	7.663755e+00	6.287390e-02	
597	5.719886e-02	7.663755e+00	6.287394e-02	
598	5.729886e-02	7.663755e+00	6.287390e-02	
599	5.739886e-02	7.663755e+00	6.287394e-02	
600	5.749886e-02	7.663755e+00	6.287390e-02	
601	5.759886e-02	7.663755e+00	6.287394e-02	
602	5.769886e-02	7.663755e+00	6.287390e-02	
603	5.779886e-02	7.663755e+00	6.287394e-02	
604	5.789886e-02	7.663755e+00	6.287390e-02	
605	5.799886e-02	7.663755e+00	6.287394e-02	
606	5.809886e-02	7.663755e+00	6.287390e-02	
607	5.819886e-02	7.663755e+00	6.287394e-02	
608	5.829886e-02	7.663755e+00	6.287390e-02	
609	5.839886e-02	7.663755e+00	6.287394e-02	
610	5.849886e-02	7.663755e+00	6.287390e-02	
611	5.859886e-02	7.663755e+00	6.287394e-02	
612	5.869886e-02	7.663755e+00	6.287390e-02	
613	5.879886e-02	7.663755e+00	6.287394e-02	
614	5.889886e-02	7.663755e+00	6.287390e-02	
615	5.899886e-02	7.663755e+00	6.287394e-02	
616	5.909886e-02	7.663755e+00	6.287390e-02	
617	5.919886e-02	7.663755e+00	6.287394e-02	
618	5.929886e-02	7.663755e+00	6.287391e-02	
619	5.939886e-02	7.663755e+00	6.287394e-02	
620	5.949886e-02	7.663755e+00	6.287391e-02	
621	5.959886e-02	7.663755e+00	6.287394e-02	
622	5.969886e-02	7.663755e+00	6.287391e-02	
623	5.979886e-02	7.663755e+00	6.287394e-02	
624	5.989886e-02	7.663755e+00	6.287391e-02	
625	5.999886e-02	7.663755e+00	6.287394e-02	
626	6.009886e-02	7.663755e+00	6.287391e-02	
627	6.019886e-02	7.663755e+00	6.287394e-02	
628	6.029886e-02	7.663755e+00	6.287391e-02	
629	6.039886e-02	7.663755e+00	6.287394e-02	
630	6.049886e-02	7.663755e+00	6.287391e-02	
631	6.059886e-02	7.663755e+00	6.287394e-02	
632	6.069886e-02	7.663755e+00	6.287391e-02	
633	6.079886e-02	7.663755e+00	6.287394e-02	
634	6.089886e-02	7.663755e+00	6.287391e-02	

Index   time            v(diag_pin)     v(mcu_gpio)     
--------------------------------------------------------------------------------
635	6.099886e-02	7.663755e+00	6.287394e-02	
636	6.109886e-02	7.663755e+00	6.287391e-02	
637	6.119886e-02	7.663755e+00	6.287394e-02	
638	6.129886e-02	7.663755e+00	6.287391e-02	
639	6.139886e-02	7.663755e+00	6.287394e-02	
640	6.149886e-02	7.663755e+00	6.287391e-02	
641	6.159886e-02	7.663755e+00	6.287394e-02	
642	6.169886e-02	7.663755e+00	6.287391e-02	
643	6.179886e-02	7.663755e+00	6.287394e-02	
644	6.189886e-02	7.663755e+00	6.287391e-02	
645	6.199886e-02	7.663755e+00	6.287394e-02	
646	6.209886e-02	7.663755e+00	6.287391e-02	
647	6.219886e-02	7.663755e+00	6.287394e-02	
648	6.229886e-02	7.663755e+00	6.287391e-02	
649	6.239886e-02	7.663755e+00	6.287394e-02	
650	6.249886e-02	7.663755e+00	6.287391e-02	
651	6.259886e-02	7.663755e+00	6.287394e-02	
652	6.269886e-02	7.663755e+00	6.287391e-02	
653	6.279886e-02	7.663755e+00	6.287394e-02	
654	6.289886e-02	7.663755e+00	6.287391e-02	
655	6.299886e-02	7.663755e+00	6.287394e-02	
656	6.309886e-02	7.663755e+00	6.287391e-02	
657	6.319886e-02	7.663755e+00	6.287394e-02	
658	6.329886e-02	7.663755e+00	6.287391e-02	
659	6.339886e-02	7.663755e+00	6.287394e-02	
660	6.349886e-02	7.663755e+00	6.287391e-02	
661	6.359886e-02	7.663755e+00	6.287394e-02	
662	6.369886e-02	7.663755e+00	6.287391e-02	
663	6.379886e-02	7.663755e+00	6.287394e-02	
664	6.389886e-02	7.663755e+00	6.287391e-02	
665	6.399886e-02	7.663755e+00	6.287394e-02	
666	6.409886e-02	7.663755e+00	6.287391e-02	
667	6.419886e-02	7.663755e+00	6.287394e-02	
668	6.429886e-02	7.663755e+00	6.287391e-02	
669	6.439886e-02	7.663755e+00	6.287394e-02	
670	6.449886e-02	7.663755e+00	6.287391e-02	
671	6.459886e-02	7.663755e+00	6.287394e-02	
672	6.469886e-02	7.663755e+00	6.287391e-02	
673	6.479886e-02	7.663755e+00	6.287394e-02	
674	6.489886e-02	7.663755e+00	6.287391e-02	
675	6.499886e-02	7.663755e+00	6.287394e-02	
676	6.509886e-02	7.663755e+00	6.287391e-02	
677	6.519886e-02	7.663755e+00	6.287394e-02	
678	6.529886e-02	7.663755e+00	6.287391e-02	
679	6.539886e-02	7.663755e+00	6.287394e-02	
680	6.549886e-02	7.663755e+00	6.287391e-02	
681	6.559886e-02	7.663755e+00	6.287394e-02	
682	6.569886e-02	7.663755e+00	6.287391e-02	
683	6.579886e-02	7.663755e+00	6.287394e-02	
684	6.589886e-02	7.663755e+00	6.287391e-02	
685	6.599886e-02	7.663755e+00	6.287394e-02	
686	6.609886e-02	7.663755e+00	6.287391e-02	
687	6.619886e-02	7.663755e+00	6.287394e-02	
688	6.629886e-02	7.663755e+00	6.287391e-02	
689	6.639886e-02	7.663755e+00	6.287394e-02	
690	6.649886e-02	7.663755e+00	6.287391e-02	
691	6.659886e-02	7.663755e+00	6.287394e-02	
692	6.669886e-02	7.663755e+00	6.287391e-02	

Index   time            v(diag_pin)     v(mcu_gpio)     
--------------------------------------------------------------------------------
693	6.679886e-02	7.663755e+00	6.287394e-02	
694	6.689886e-02	7.663755e+00	6.287391e-02	
695	6.699886e-02	7.663755e+00	6.287394e-02	
696	6.709886e-02	7.663755e+00	6.287391e-02	
697	6.719886e-02	7.663755e+00	6.287394e-02	
698	6.729886e-02	7.663755e+00	6.287391e-02	
699	6.739886e-02	7.663755e+00	6.287394e-02	
700	6.749886e-02	7.663755e+00	6.287391e-02	
701	6.759886e-02	7.663755e+00	6.287394e-02	
702	6.769886e-02	7.663755e+00	6.287391e-02	
703	6.779886e-02	7.663755e+00	6.287394e-02	
704	6.789886e-02	7.663755e+00	6.287391e-02	
705	6.799886e-02	7.663755e+00	6.287394e-02	
706	6.809886e-02	7.663755e+00	6.287391e-02	
707	6.819886e-02	7.663755e+00	6.287393e-02	
708	6.829886e-02	7.663755e+00	6.287391e-02	
709	6.839886e-02	7.663755e+00	6.287393e-02	
710	6.849886e-02	7.663755e+00	6.287391e-02	
711	6.859886e-02	7.663755e+00	6.287393e-02	
712	6.869886e-02	7.663755e+00	6.287391e-02	
713	6.879886e-02	7.663755e+00	6.287393e-02	
714	6.889886e-02	7.663755e+00	6.287391e-02	
715	6.899886e-02	7.663755e+00	6.287393e-02	
716	6.909886e-02	7.663755e+00	6.287391e-02	
717	6.919886e-02	7.663755e+00	6.287393e-02	
718	6.929886e-02	7.663755e+00	6.287391e-02	
719	6.939886e-02	7.663755e+00	6.287393e-02	
720	6.949886e-02	7.663755e+00	6.287391e-02	
721	6.959886e-02	7.663755e+00	6.287393e-02	
722	6.969886e-02	7.663755e+00	6.287391e-02	
723	6.979886e-02	7.663755e+00	6.287393e-02	
724	6.989886e-02	7.663755e+00	6.287391e-02	
725	6.999886e-02	7.663755e+00	6.287393e-02	
726	7.009886e-02	7.663755e+00	6.287391e-02	
727	7.019886e-02	7.663755e+00	6.287393e-02	
728	7.029886e-02	7.663755e+00	6.287391e-02	
729	7.039886e-02	7.663755e+00	6.287393e-02	
730	7.049886e-02	7.663755e+00	6.287391e-02	
731	7.059886e-02	7.663755e+00	6.287393e-02	
732	7.069886e-02	7.663755e+00	6.287391e-02	
733	7.079886e-02	7.663755e+00	6.287393e-02	
734	7.089886e-02	7.663755e+00	6.287391e-02	
735	7.099886e-02	7.663755e+00	6.287393e-02	
736	7.109886e-02	7.663755e+00	6.287391e-02	
737	7.119886e-02	7.663755e+00	6.287393e-02	
738	7.129886e-02	7.663755e+00	6.287391e-02	
739	7.139886e-02	7.663755e+00	6.287393e-02	
740	7.149886e-02	7.663755e+00	6.287391e-02	
741	7.159886e-02	7.663755e+00	6.287393e-02	
742	7.169886e-02	7.663755e+00	6.287391e-02	
743	7.179886e-02	7.663755e+00	6.287393e-02	
744	7.189886e-02	7.663755e+00	6.287391e-02	
745	7.199886e-02	7.663755e+00	6.287393e-02	
746	7.209886e-02	7.663755e+00	6.287391e-02	
747	7.219886e-02	7.663755e+00	6.287393e-02	
748	7.229886e-02	7.663755e+00	6.287391e-02	
749	7.239886e-02	7.663755e+00	6.287393e-02	
750	7.249886e-02	7.663755e+00	6.287391e-02	

Index   time            v(diag_pin)     v(mcu_gpio)     
--------------------------------------------------------------------------------
751	7.259886e-02	7.663755e+00	6.287393e-02	
752	7.269886e-02	7.663755e+00	6.287391e-02	
753	7.279886e-02	7.663755e+00	6.287393e-02	
754	7.289886e-02	7.663755e+00	6.287391e-02	
755	7.299886e-02	7.663755e+00	6.287393e-02	
756	7.309886e-02	7.663755e+00	6.287391e-02	
757	7.319886e-02	7.663755e+00	6.287393e-02	
758	7.329886e-02	7.663755e+00	6.287391e-02	
759	7.339886e-02	7.663755e+00	6.287393e-02	
760	7.349886e-02	7.663755e+00	6.287391e-02	
761	7.359886e-02	7.663755e+00	6.287393e-02	
762	7.369886e-02	7.663755e+00	6.287391e-02	
763	7.379886e-02	7.663755e+00	6.287393e-02	
764	7.389886e-02	7.663755e+00	6.287391e-02	
765	7.399886e-02	7.663755e+00	6.287393e-02	
766	7.409886e-02	7.663755e+00	6.287391e-02	
767	7.419886e-02	7.663755e+00	6.287393e-02	
768	7.429886e-02	7.663755e+00	6.287391e-02	
769	7.439886e-02	7.663755e+00	6.287393e-02	
770	7.449886e-02	7.663755e+00	6.287391e-02	
771	7.459886e-02	7.663755e+00	6.287393e-02	
772	7.469886e-02	7.663755e+00	6.287391e-02	
773	7.479886e-02	7.663755e+00	6.287393e-02	
774	7.489886e-02	7.663755e+00	6.287391e-02	
775	7.499886e-02	7.663755e+00	6.287393e-02	
776	7.509886e-02	7.663755e+00	6.287391e-02	
777	7.519886e-02	7.663755e+00	6.287393e-02	
778	7.529886e-02	7.663755e+00	6.287391e-02	
779	7.539886e-02	7.663755e+00	6.287393e-02	
780	7.549886e-02	7.663755e+00	6.287391e-02	
781	7.559886e-02	7.663755e+00	6.287393e-02	
782	7.569886e-02	7.663755e+00	6.287391e-02	
783	7.579886e-02	7.663755e+00	6.287393e-02	
784	7.589886e-02	7.663755e+00	6.287391e-02	
785	7.599886e-02	7.663755e+00	6.287393e-02	
786	7.609886e-02	7.663755e+00	6.287391e-02	
787	7.619886e-02	7.663755e+00	6.287393e-02	
788	7.629886e-02	7.663755e+00	6.287391e-02	
789	7.639886e-02	7.663755e+00	6.287393e-02	
790	7.649886e-02	7.663755e+00	6.287391e-02	
791	7.659886e-02	7.663755e+00	6.287393e-02	
792	7.669886e-02	7.663755e+00	6.287391e-02	
793	7.679886e-02	7.663755e+00	6.287393e-02	
794	7.689886e-02	7.663755e+00	6.287391e-02	
795	7.699886e-02	7.663755e+00	6.287393e-02	
796	7.709886e-02	7.663755e+00	6.287391e-02	
797	7.719886e-02	7.663755e+00	6.287393e-02	
798	7.729886e-02	7.663755e+00	6.287391e-02	
799	7.739886e-02	7.663755e+00	6.287393e-02	
800	7.749886e-02	7.663755e+00	6.287391e-02	
801	7.759886e-02	7.663755e+00	6.287393e-02	
802	7.769886e-02	7.663755e+00	6.287391e-02	
803	7.779886e-02	7.663755e+00	6.287393e-02	
804	7.789886e-02	7.663755e+00	6.287391e-02	
805	7.799886e-02	7.663755e+00	6.287393e-02	
806	7.809886e-02	7.663755e+00	6.287391e-02	
807	7.819886e-02	7.663755e+00	6.287393e-02	
808	7.829886e-02	7.663755e+00	6.287391e-02	

Index   time            v(diag_pin)     v(mcu_gpio)     
--------------------------------------------------------------------------------
809	7.839886e-02	7.663755e+00	6.287393e-02	
810	7.849886e-02	7.663755e+00	6.287391e-02	
811	7.859886e-02	7.663755e+00	6.287393e-02	
812	7.869886e-02	7.663755e+00	6.287391e-02	
813	7.879886e-02	7.663755e+00	6.287393e-02	
814	7.889886e-02	7.663755e+00	6.287391e-02	
815	7.899886e-02	7.663755e+00	6.287393e-02	
816	7.909886e-02	7.663755e+00	6.287391e-02	
817	7.919886e-02	7.663755e+00	6.287393e-02	
818	7.929886e-02	7.663755e+00	6.287391e-02	
819	7.939886e-02	7.663755e+00	6.287393e-02	
820	7.949886e-02	7.663755e+00	6.287391e-02	
821	7.959886e-02	7.663755e+00	6.287393e-02	
822	7.969886e-02	7.663755e+00	6.287391e-02	
823	7.979886e-02	7.663755e+00	6.287393e-02	
824	7.989886e-02	7.663755e+00	6.287391e-02	
825	7.999886e-02	7.663755e+00	6.287393e-02	
826	8.009886e-02	7.663755e+00	6.287391e-02	
827	8.019886e-02	7.663755e+00	6.287393e-02	
828	8.029886e-02	7.663755e+00	6.287391e-02	
829	8.039886e-02	7.663755e+00	6.287393e-02	
830	8.049886e-02	7.663755e+00	6.287391e-02	
831	8.059886e-02	7.663755e+00	6.287393e-02	
832	8.069886e-02	7.663755e+00	6.287391e-02	
833	8.079886e-02	7.663755e+00	6.287393e-02	
834	8.089886e-02	7.663755e+00	6.287391e-02	
835	8.099886e-02	7.663755e+00	6.287393e-02	
836	8.109886e-02	7.663755e+00	6.287391e-02	
837	8.119886e-02	7.663755e+00	6.287393e-02	
838	8.129886e-02	7.663755e+00	6.287391e-02	
839	8.139886e-02	7.663755e+00	6.287393e-02	
840	8.149886e-02	7.663755e+00	6.287391e-02	
841	8.159886e-02	7.663755e+00	6.287393e-02	
842	8.169886e-02	7.663755e+00	6.287391e-02	
843	8.179886e-02	7.663755e+00	6.287393e-02	
844	8.189886e-02	7.663755e+00	6.287391e-02	
845	8.199886e-02	7.663755e+00	6.287393e-02	
846	8.209886e-02	7.663755e+00	6.287391e-02	
847	8.219886e-02	7.663755e+00	6.287393e-02	
848	8.229886e-02	7.663755e+00	6.287391e-02	
849	8.239886e-02	7.663755e+00	6.287393e-02	
850	8.249886e-02	7.663755e+00	6.287391e-02	
851	8.259886e-02	7.663755e+00	6.287393e-02	
852	8.269886e-02	7.663755e+00	6.287391e-02	
853	8.279886e-02	7.663755e+00	6.287393e-02	
854	8.289886e-02	7.663755e+00	6.287391e-02	
855	8.299886e-02	7.663755e+00	6.287393e-02	
856	8.309886e-02	7.663755e+00	6.287391e-02	
857	8.319886e-02	7.663755e+00	6.287393e-02	
858	8.329886e-02	7.663755e+00	6.287391e-02	
859	8.339886e-02	7.663755e+00	6.287393e-02	
860	8.349886e-02	7.663755e+00	6.287391e-02	
861	8.359886e-02	7.663755e+00	6.287393e-02	
862	8.369886e-02	7.663755e+00	6.287391e-02	
863	8.379886e-02	7.663755e+00	6.287393e-02	
864	8.389886e-02	7.663755e+00	6.287391e-02	
865	8.399886e-02	7.663755e+00	6.287393e-02	
866	8.409886e-02	7.663755e+00	6.287391e-02	

Index   time            v(diag_pin)     v(mcu_gpio)     
--------------------------------------------------------------------------------
867	8.419886e-02	7.663755e+00	6.287393e-02	
868	8.429886e-02	7.663755e+00	6.287391e-02	
869	8.439886e-02	7.663755e+00	6.287393e-02	
870	8.449886e-02	7.663755e+00	6.287391e-02	
871	8.459886e-02	7.663755e+00	6.287393e-02	
872	8.469886e-02	7.663755e+00	6.287391e-02	
873	8.479886e-02	7.663755e+00	6.287393e-02	
874	8.489886e-02	7.663755e+00	6.287391e-02	
875	8.499886e-02	7.663755e+00	6.287393e-02	
876	8.509886e-02	7.663755e+00	6.287391e-02	
877	8.519886e-02	7.663755e+00	6.287393e-02	
878	8.529886e-02	7.663755e+00	6.287391e-02	
879	8.539886e-02	7.663755e+00	6.287393e-02	
880	8.549886e-02	7.663755e+00	6.287391e-02	
881	8.559886e-02	7.663755e+00	6.287393e-02	
882	8.569886e-02	7.663755e+00	6.287391e-02	
883	8.579886e-02	7.663755e+00	6.287393e-02	
884	8.589886e-02	7.663755e+00	6.287391e-02	
885	8.599886e-02	7.663755e+00	6.287393e-02	
886	8.609886e-02	7.663755e+00	6.287391e-02	
887	8.619886e-02	7.663755e+00	6.287393e-02	
888	8.629886e-02	7.663755e+00	6.287391e-02	
889	8.639886e-02	7.663755e+00	6.287393e-02	
890	8.649886e-02	7.663755e+00	6.287391e-02	
891	8.659886e-02	7.663755e+00	6.287393e-02	
892	8.669886e-02	7.663755e+00	6.287391e-02	
893	8.679886e-02	7.663755e+00	6.287393e-02	
894	8.689886e-02	7.663755e+00	6.287391e-02	
895	8.699886e-02	7.663755e+00	6.287393e-02	
896	8.709886e-02	7.663755e+00	6.287391e-02	
897	8.719886e-02	7.663755e+00	6.287393e-02	
898	8.729886e-02	7.663755e+00	6.287391e-02	
899	8.739886e-02	7.663755e+00	6.287393e-02	
900	8.749886e-02	7.663755e+00	6.287391e-02	
901	8.759886e-02	7.663755e+00	6.287393e-02	
902	8.769886e-02	7.663755e+00	6.287391e-02	
903	8.779886e-02	7.663755e+00	6.287393e-02	
904	8.789886e-02	7.663755e+00	6.287391e-02	
905	8.799886e-02	7.663755e+00	6.287393e-02	
906	8.809886e-02	7.663755e+00	6.287391e-02	
907	8.819886e-02	7.663755e+00	6.287393e-02	
908	8.829886e-02	7.663755e+00	6.287391e-02	
909	8.839886e-02	7.663755e+00	6.287393e-02	
910	8.849886e-02	7.663755e+00	6.287391e-02	
911	8.859886e-02	7.663755e+00	6.287393e-02	
912	8.869886e-02	7.663755e+00	6.287391e-02	
913	8.879886e-02	7.663755e+00	6.287393e-02	
914	8.889886e-02	7.663755e+00	6.287391e-02	
915	8.899886e-02	7.663755e+00	6.287393e-02	
916	8.909886e-02	7.663755e+00	6.287391e-02	
917	8.919886e-02	7.663755e+00	6.287393e-02	
918	8.929886e-02	7.663755e+00	6.287391e-02	
919	8.939886e-02	7.663755e+00	6.287393e-02	
920	8.949886e-02	7.663755e+00	6.287391e-02	
921	8.959886e-02	7.663755e+00	6.287393e-02	
922	8.969886e-02	7.663755e+00	6.287391e-02	
923	8.979886e-02	7.663755e+00	6.287393e-02	
924	8.989886e-02	7.663755e+00	6.287391e-02	

Index   time            v(diag_pin)     v(mcu_gpio)     
--------------------------------------------------------------------------------
925	8.999886e-02	7.663755e+00	6.287393e-02	
926	9.009886e-02	7.663755e+00	6.287391e-02	
927	9.019886e-02	7.663755e+00	6.287393e-02	
928	9.029886e-02	7.663755e+00	6.287391e-02	
929	9.039886e-02	7.663755e+00	6.287393e-02	
930	9.049886e-02	7.663755e+00	6.287391e-02	
931	9.059886e-02	7.663755e+00	6.287393e-02	
932	9.069886e-02	7.663755e+00	6.287391e-02	
933	9.079886e-02	7.663755e+00	6.287393e-02	
934	9.089886e-02	7.663755e+00	6.287391e-02	
935	9.099886e-02	7.663755e+00	6.287393e-02	
936	9.109886e-02	7.663755e+00	6.287391e-02	
937	9.119886e-02	7.663755e+00	6.287393e-02	
938	9.129886e-02	7.663755e+00	6.287391e-02	
939	9.139886e-02	7.663755e+00	6.287393e-02	
940	9.149886e-02	7.663755e+00	6.287391e-02	
941	9.159886e-02	7.663755e+00	6.287393e-02	
942	9.169886e-02	7.663755e+00	6.287391e-02	
943	9.179886e-02	7.663755e+00	6.287393e-02	
944	9.189886e-02	7.663755e+00	6.287391e-02	
945	9.199886e-02	7.663755e+00	6.287393e-02	
946	9.209886e-02	7.663755e+00	6.287391e-02	
947	9.219886e-02	7.663755e+00	6.287393e-02	
948	9.229886e-02	7.663755e+00	6.287391e-02	
949	9.239886e-02	7.663755e+00	6.287393e-02	
950	9.249886e-02	7.663755e+00	6.287391e-02	
951	9.259886e-02	7.663755e+00	6.287393e-02	
952	9.269886e-02	7.663755e+00	6.287391e-02	
953	9.279886e-02	7.663755e+00	6.287393e-02	
954	9.289886e-02	7.663755e+00	6.287391e-02	
955	9.299886e-02	7.663755e+00	6.287393e-02	
956	9.309886e-02	7.663755e+00	6.287391e-02	
957	9.319886e-02	7.663755e+00	6.287393e-02	
958	9.329886e-02	7.663755e+00	6.287391e-02	
959	9.339886e-02	7.663755e+00	6.287393e-02	
960	9.349886e-02	7.663755e+00	6.287391e-02	
961	9.359886e-02	7.663755e+00	6.287393e-02	
962	9.369886e-02	7.663755e+00	6.287391e-02	
963	9.379886e-02	7.663755e+00	6.287393e-02	
964	9.389886e-02	7.663755e+00	6.287391e-02	
965	9.399886e-02	7.663755e+00	6.287393e-02	
966	9.409886e-02	7.663755e+00	6.287391e-02	
967	9.419886e-02	7.663755e+00	6.287393e-02	
968	9.429886e-02	7.663755e+00	6.287391e-02	
969	9.439886e-02	7.663755e+00	6.287393e-02	
970	9.449886e-02	7.663755e+00	6.287391e-02	
971	9.459886e-02	7.663755e+00	6.287393e-02	
972	9.469886e-02	7.663755e+00	6.287391e-02	
973	9.479886e-02	7.663755e+00	6.287393e-02	
974	9.489886e-02	7.663755e+00	6.287391e-02	
975	9.499886e-02	7.663755e+00	6.287393e-02	
976	9.509886e-02	7.663755e+00	6.287391e-02	
977	9.519886e-02	7.663755e+00	6.287393e-02	
978	9.529886e-02	7.663755e+00	6.287391e-02	
979	9.539886e-02	7.663755e+00	6.287393e-02	
980	9.549886e-02	7.663755e+00	6.287391e-02	
981	9.559886e-02	7.663755e+00	6.287393e-02	
982	9.569886e-02	7.663755e+00	6.287391e-02	

Index   time            v(diag_pin)     v(mcu_gpio)     
--------------------------------------------------------------------------------
983	9.579886e-02	7.663755e+00	6.287393e-02	
984	9.589886e-02	7.663755e+00	6.287391e-02	
985	9.599886e-02	7.663755e+00	6.287393e-02	
986	9.609886e-02	7.663755e+00	6.287391e-02	
987	9.619886e-02	7.663755e+00	6.287393e-02	
988	9.629886e-02	7.663755e+00	6.287391e-02	
989	9.639886e-02	7.663755e+00	6.287393e-02	
990	9.649886e-02	7.663755e+00	6.287391e-02	
991	9.659886e-02	7.663755e+00	6.287393e-02	
992	9.669886e-02	7.663755e+00	6.287391e-02	
993	9.679886e-02	7.663755e+00	6.287393e-02	
994	9.689886e-02	7.663755e+00	6.287391e-02	
995	9.699886e-02	7.663755e+00	6.287393e-02	
996	9.709886e-02	7.663755e+00	6.287391e-02	
997	9.719886e-02	7.663755e+00	6.287393e-02	
998	9.729886e-02	7.663755e+00	6.287391e-02	
999	9.739886e-02	7.663755e+00	6.287393e-02	
1000	9.749886e-02	7.663755e+00	6.287391e-02	
1001	9.759886e-02	7.663755e+00	6.287393e-02	
1002	9.769886e-02	7.663755e+00	6.287391e-02	
1003	9.779886e-02	7.663755e+00	6.287393e-02	
1004	9.789886e-02	7.663755e+00	6.287391e-02	
1005	9.799886e-02	7.663755e+00	6.287393e-02	
1006	9.809886e-02	7.663755e+00	6.287391e-02	
1007	9.819886e-02	7.663755e+00	6.287393e-02	
1008	9.829886e-02	7.663755e+00	6.287391e-02	
1009	9.839886e-02	7.663755e+00	6.287393e-02	
1010	9.849886e-02	7.663755e+00	6.287391e-02	
1011	9.859886e-02	7.663755e+00	6.287393e-02	
1012	9.869886e-02	7.663755e+00	6.287391e-02	
1013	9.879886e-02	7.663755e+00	6.287393e-02	
1014	9.889886e-02	7.663755e+00	6.287391e-02	
1015	9.899886e-02	7.663755e+00	6.287393e-02	
1016	9.909886e-02	7.663755e+00	6.287391e-02	
1017	9.919886e-02	7.663755e+00	6.287393e-02	
1018	9.929886e-02	7.663755e+00	6.287391e-02	
1019	9.939886e-02	7.663755e+00	6.287393e-02	
1020	9.949886e-02	7.663755e+00	6.287391e-02	
1021	9.959886e-02	7.663755e+00	6.287393e-02	
1022	9.969886e-02	7.663755e+00	6.287391e-02	
1023	9.979886e-02	7.663755e+00	6.287393e-02	
1024	9.989886e-02	7.663755e+00	6.287391e-02	
1025	9.999886e-02	7.663755e+00	6.287393e-02	
1026	1.000989e-01	7.663755e+00	6.287391e-02	
1027	1.001989e-01	7.663755e+00	6.287393e-02	
1028	1.002989e-01	7.663755e+00	6.287391e-02	
1029	1.003989e-01	7.663755e+00	6.287393e-02	
1030	1.004989e-01	7.663755e+00	6.287391e-02	
1031	1.005989e-01	7.663755e+00	6.287393e-02	
1032	1.006989e-01	7.663755e+00	6.287391e-02	
1033	1.007989e-01	7.663755e+00	6.287393e-02	
1034	1.008989e-01	7.663755e+00	6.287391e-02	
1035	1.009989e-01	7.663755e+00	6.287393e-02	
1036	1.010989e-01	7.663755e+00	6.287391e-02	
1037	1.011989e-01	7.663755e+00	6.287393e-02	
1038	1.012989e-01	7.663755e+00	6.287391e-02	
1039	1.013989e-01	7.663755e+00	6.287393e-02	
1040	1.014989e-01	7.663755e+00	6.287391e-02	

Index   time            v(diag_pin)     v(mcu_gpio)     
--------------------------------------------------------------------------------
1041	1.015989e-01	7.663755e+00	6.287393e-02	
1042	1.016989e-01	7.663755e+00	6.287391e-02	
1043	1.017989e-01	7.663755e+00	6.287393e-02	
1044	1.018989e-01	7.663755e+00	6.287391e-02	
1045	1.019989e-01	7.663755e+00	6.287393e-02	
1046	1.020989e-01	7.663755e+00	6.287391e-02	
1047	1.021989e-01	7.663755e+00	6.287393e-02	
1048	1.022989e-01	7.663755e+00	6.287391e-02	
1049	1.023989e-01	7.663755e+00	6.287393e-02	
1050	1.024989e-01	7.663755e+00	6.287391e-02	
1051	1.025989e-01	7.663755e+00	6.287393e-02	
1052	1.026989e-01	7.663755e+00	6.287391e-02	
1053	1.027989e-01	7.663755e+00	6.287393e-02	
1054	1.028989e-01	7.663755e+00	6.287391e-02	
1055	1.029989e-01	7.663755e+00	6.287393e-02	
1056	1.030989e-01	7.663755e+00	6.287391e-02	
1057	1.031989e-01	7.663755e+00	6.287393e-02	
1058	1.032989e-01	7.663755e+00	6.287391e-02	
1059	1.033989e-01	7.663755e+00	6.287393e-02	
1060	1.034989e-01	7.663755e+00	6.287391e-02	
1061	1.035989e-01	7.663755e+00	6.287393e-02	
1062	1.036989e-01	7.663755e+00	6.287391e-02	
1063	1.037989e-01	7.663755e+00	6.287393e-02	
1064	1.038989e-01	7.663755e+00	6.287391e-02	
1065	1.039989e-01	7.663755e+00	6.287393e-02	
1066	1.040989e-01	7.663755e+00	6.287391e-02	
1067	1.041989e-01	7.663755e+00	6.287393e-02	
1068	1.042989e-01	7.663755e+00	6.287391e-02	
1069	1.043989e-01	7.663755e+00	6.287393e-02	
1070	1.044989e-01	7.663755e+00	6.287391e-02	
1071	1.045989e-01	7.663755e+00	6.287393e-02	
1072	1.046989e-01	7.663755e+00	6.287391e-02	
1073	1.047989e-01	7.663755e+00	6.287393e-02	
1074	1.048989e-01	7.663755e+00	6.287391e-02	
1075	1.049989e-01	7.663755e+00	6.287393e-02	
1076	1.050989e-01	7.663755e+00	6.287391e-02	
1077	1.051989e-01	7.663755e+00	6.287393e-02	
1078	1.052989e-01	7.663755e+00	6.287391e-02	
1079	1.053989e-01	7.663755e+00	6.287393e-02	
1080	1.054989e-01	7.663755e+00	6.287391e-02	
1081	1.055989e-01	7.663755e+00	6.287393e-02	
1082	1.056989e-01	7.663755e+00	6.287391e-02	
1083	1.057989e-01	7.663755e+00	6.287393e-02	
1084	1.058989e-01	7.663755e+00	6.287391e-02	
1085	1.059989e-01	7.663755e+00	6.287393e-02	
1086	1.060989e-01	7.663755e+00	6.287391e-02	
1087	1.061989e-01	7.663755e+00	6.287393e-02	
1088	1.062989e-01	7.663755e+00	6.287391e-02	
1089	1.063989e-01	7.663755e+00	6.287393e-02	
1090	1.064989e-01	7.663755e+00	6.287391e-02	
1091	1.065989e-01	7.663755e+00	6.287393e-02	
1092	1.066989e-01	7.663755e+00	6.287391e-02	
1093	1.067989e-01	7.663755e+00	6.287393e-02	
1094	1.068989e-01	7.663755e+00	6.287391e-02	
1095	1.069989e-01	7.663755e+00	6.287393e-02	
1096	1.070989e-01	7.663755e+00	6.287391e-02	
1097	1.071989e-01	7.663755e+00	6.287393e-02	
1098	1.072989e-01	7.663755e+00	6.287391e-02	

Index   time            v(diag_pin)     v(mcu_gpio)     
--------------------------------------------------------------------------------
1099	1.073989e-01	7.663755e+00	6.287393e-02	
1100	1.074989e-01	7.663755e+00	6.287391e-02	
1101	1.075989e-01	7.663755e+00	6.287393e-02	
1102	1.076989e-01	7.663755e+00	6.287391e-02	
1103	1.077989e-01	7.663755e+00	6.287393e-02	
1104	1.078989e-01	7.663755e+00	6.287391e-02	
1105	1.079989e-01	7.663755e+00	6.287393e-02	
1106	1.080989e-01	7.663755e+00	6.287391e-02	
1107	1.081989e-01	7.663755e+00	6.287393e-02	
1108	1.082989e-01	7.663755e+00	6.287391e-02	
1109	1.083989e-01	7.663755e+00	6.287393e-02	
1110	1.084989e-01	7.663755e+00	6.287391e-02	
1111	1.085989e-01	7.663755e+00	6.287393e-02	
1112	1.086989e-01	7.663755e+00	6.287391e-02	
1113	1.087989e-01	7.663755e+00	6.287393e-02	
1114	1.088989e-01	7.663755e+00	6.287391e-02	
1115	1.089989e-01	7.663755e+00	6.287393e-02	
1116	1.090989e-01	7.663755e+00	6.287391e-02	
1117	1.091989e-01	7.663755e+00	6.287393e-02	
1118	1.092989e-01	7.663755e+00	6.287391e-02	
1119	1.093989e-01	7.663755e+00	6.287393e-02	
1120	1.094989e-01	7.663755e+00	6.287391e-02	
1121	1.095989e-01	7.663755e+00	6.287393e-02	
1122	1.096989e-01	7.663755e+00	6.287391e-02	
1123	1.097989e-01	7.663755e+00	6.287393e-02	
1124	1.098989e-01	7.663755e+00	6.287391e-02	
1125	1.099989e-01	7.663755e+00	6.287393e-02	
1126	1.100989e-01	7.663755e+00	6.287391e-02	
1127	1.101989e-01	7.663755e+00	6.287393e-02	
1128	1.102989e-01	7.663755e+00	6.287391e-02	
1129	1.103989e-01	7.663755e+00	6.287393e-02	
1130	1.104989e-01	7.663755e+00	6.287391e-02	
1131	1.105989e-01	7.663755e+00	6.287393e-02	
1132	1.106989e-01	7.663755e+00	6.287391e-02	
1133	1.107989e-01	7.663755e+00	6.287393e-02	
1134	1.108989e-01	7.663755e+00	6.287391e-02	
1135	1.109989e-01	7.663755e+00	6.287393e-02	
1136	1.110989e-01	7.663755e+00	6.287391e-02	
1137	1.111989e-01	7.663755e+00	6.287393e-02	
1138	1.112989e-01	7.663755e+00	6.287391e-02	
1139	1.113989e-01	7.663755e+00	6.287393e-02	
1140	1.114989e-01	7.663755e+00	6.287391e-02	
1141	1.115989e-01	7.663755e+00	6.287393e-02	
1142	1.116989e-01	7.663755e+00	6.287391e-02	
1143	1.117989e-01	7.663755e+00	6.287393e-02	
1144	1.118989e-01	7.663755e+00	6.287391e-02	
1145	1.119989e-01	7.663755e+00	6.287393e-02	
1146	1.120989e-01	7.663755e+00	6.287391e-02	
1147	1.121989e-01	7.663755e+00	6.287393e-02	
1148	1.122989e-01	7.663755e+00	6.287391e-02	
1149	1.123989e-01	7.663755e+00	6.287393e-02	
1150	1.124989e-01	7.663755e+00	6.287391e-02	
1151	1.125989e-01	7.663755e+00	6.287393e-02	
1152	1.126989e-01	7.663755e+00	6.287391e-02	
1153	1.127989e-01	7.663755e+00	6.287393e-02	
1154	1.128989e-01	7.663755e+00	6.287391e-02	
1155	1.129989e-01	7.663755e+00	6.287393e-02	
1156	1.130989e-01	7.663755e+00	6.287391e-02	

Index   time            v(diag_pin)     v(mcu_gpio)     
--------------------------------------------------------------------------------
1157	1.131989e-01	7.663755e+00	6.287393e-02	
1158	1.132989e-01	7.663755e+00	6.287391e-02	
1159	1.133989e-01	7.663755e+00	6.287393e-02	
1160	1.134989e-01	7.663755e+00	6.287391e-02	
1161	1.135989e-01	7.663755e+00	6.287393e-02	
1162	1.136989e-01	7.663755e+00	6.287391e-02	
1163	1.137989e-01	7.663755e+00	6.287393e-02	
1164	1.138989e-01	7.663755e+00	6.287391e-02	
1165	1.139989e-01	7.663755e+00	6.287393e-02	
1166	1.140989e-01	7.663755e+00	6.287391e-02	
1167	1.141989e-01	7.663755e+00	6.287393e-02	
1168	1.142989e-01	7.663755e+00	6.287391e-02	
1169	1.143989e-01	7.663755e+00	6.287393e-02	
1170	1.144989e-01	7.663755e+00	6.287391e-02	
1171	1.145989e-01	7.663755e+00	6.287393e-02	
1172	1.146989e-01	7.663755e+00	6.287391e-02	
1173	1.147989e-01	7.663755e+00	6.287393e-02	
1174	1.148989e-01	7.663755e+00	6.287391e-02	
1175	1.149989e-01	7.663755e+00	6.287393e-02	
1176	1.150989e-01	7.663755e+00	6.287391e-02	
1177	1.151989e-01	7.663755e+00	6.287393e-02	
1178	1.152989e-01	7.663755e+00	6.287391e-02	
1179	1.153989e-01	7.663755e+00	6.287393e-02	
1180	1.154989e-01	7.663755e+00	6.287391e-02	
1181	1.155989e-01	7.663755e+00	6.287393e-02	
1182	1.156989e-01	7.663755e+00	6.287391e-02	
1183	1.157989e-01	7.663755e+00	6.287393e-02	
1184	1.158989e-01	7.663755e+00	6.287391e-02	
1185	1.159989e-01	7.663755e+00	6.287393e-02	
1186	1.160989e-01	7.663755e+00	6.287391e-02	
1187	1.161989e-01	7.663755e+00	6.287393e-02	
1188	1.162989e-01	7.663755e+00	6.287391e-02	
1189	1.163989e-01	7.663755e+00	6.287393e-02	
1190	1.164989e-01	7.663755e+00	6.287391e-02	
1191	1.165989e-01	7.663755e+00	6.287393e-02	
1192	1.166989e-01	7.663755e+00	6.287391e-02	
1193	1.167989e-01	7.663755e+00	6.287393e-02	
1194	1.168989e-01	7.663755e+00	6.287391e-02	
1195	1.169989e-01	7.663755e+00	6.287393e-02	
1196	1.170989e-01	7.663755e+00	6.287391e-02	
1197	1.171989e-01	7.663755e+00	6.287393e-02	
1198	1.172989e-01	7.663755e+00	6.287391e-02	
1199	1.173989e-01	7.663755e+00	6.287393e-02	
1200	1.174989e-01	7.663755e+00	6.287391e-02	
1201	1.175989e-01	7.663755e+00	6.287393e-02	
1202	1.176989e-01	7.663755e+00	6.287391e-02	
1203	1.177989e-01	7.663755e+00	6.287393e-02	
1204	1.178989e-01	7.663755e+00	6.287391e-02	
1205	1.179989e-01	7.663755e+00	6.287393e-02	
1206	1.180989e-01	7.663755e+00	6.287391e-02	
1207	1.181989e-01	7.663755e+00	6.287393e-02	
1208	1.182989e-01	7.663755e+00	6.287391e-02	
1209	1.183989e-01	7.663755e+00	6.287393e-02	
1210	1.184989e-01	7.663755e+00	6.287391e-02	
1211	1.185989e-01	7.663755e+00	6.287393e-02	
1212	1.186989e-01	7.663755e+00	6.287391e-02	
1213	1.187989e-01	7.663755e+00	6.287393e-02	
1214	1.188989e-01	7.663755e+00	6.287391e-02	

Index   time            v(diag_pin)     v(mcu_gpio)     
--------------------------------------------------------------------------------
1215	1.189989e-01	7.663755e+00	6.287393e-02	
1216	1.190989e-01	7.663755e+00	6.287391e-02	
1217	1.191989e-01	7.663755e+00	6.287393e-02	
1218	1.192989e-01	7.663755e+00	6.287391e-02	
1219	1.193989e-01	7.663755e+00	6.287393e-02	
1220	1.194989e-01	7.663755e+00	6.287391e-02	
1221	1.195989e-01	7.663755e+00	6.287393e-02	
1222	1.196989e-01	7.663755e+00	6.287391e-02	
1223	1.197989e-01	7.663755e+00	6.287393e-02	
1224	1.198989e-01	7.663755e+00	6.287391e-02	
1225	1.199989e-01	7.663755e+00	6.287393e-02	
1226	1.200989e-01	7.663755e+00	6.287391e-02	
1227	1.201989e-01	7.663755e+00	6.287393e-02	
1228	1.202989e-01	7.663755e+00	6.287391e-02	
1229	1.203989e-01	7.663755e+00	6.287393e-02	
1230	1.204989e-01	7.663755e+00	6.287391e-02	
1231	1.205989e-01	7.663755e+00	6.287393e-02	
1232	1.206989e-01	7.663755e+00	6.287391e-02	
1233	1.207989e-01	7.663755e+00	6.287393e-02	
1234	1.208989e-01	7.663755e+00	6.287391e-02	
1235	1.209989e-01	7.663755e+00	6.287393e-02	
1236	1.210989e-01	7.663755e+00	6.287391e-02	
1237	1.211989e-01	7.663755e+00	6.287393e-02	
1238	1.212989e-01	7.663755e+00	6.287391e-02	
1239	1.213989e-01	7.663755e+00	6.287393e-02	
1240	1.214989e-01	7.663755e+00	6.287391e-02	
1241	1.215989e-01	7.663755e+00	6.287393e-02	
1242	1.216989e-01	7.663755e+00	6.287391e-02	
1243	1.217989e-01	7.663755e+00	6.287393e-02	
1244	1.218989e-01	7.663755e+00	6.287391e-02	
1245	1.219989e-01	7.663755e+00	6.287393e-02	
1246	1.220989e-01	7.663755e+00	6.287391e-02	
1247	1.221989e-01	7.663755e+00	6.287393e-02	
1248	1.222989e-01	7.663755e+00	6.287391e-02	
1249	1.223989e-01	7.663755e+00	6.287393e-02	
1250	1.224989e-01	7.663755e+00	6.287391e-02	
1251	1.225989e-01	7.663755e+00	6.287393e-02	
1252	1.226989e-01	7.663755e+00	6.287391e-02	
1253	1.227989e-01	7.663755e+00	6.287393e-02	
1254	1.228989e-01	7.663755e+00	6.287391e-02	
1255	1.229989e-01	7.663755e+00	6.287393e-02	
1256	1.230989e-01	7.663755e+00	6.287391e-02	
1257	1.231989e-01	7.663755e+00	6.287393e-02	
1258	1.232989e-01	7.663755e+00	6.287391e-02	
1259	1.233989e-01	7.663755e+00	6.287393e-02	
1260	1.234989e-01	7.663755e+00	6.287391e-02	
1261	1.235989e-01	7.663755e+00	6.287393e-02	
1262	1.236989e-01	7.663755e+00	6.287391e-02	
1263	1.237989e-01	7.663755e+00	6.287393e-02	
1264	1.238989e-01	7.663755e+00	6.287391e-02	
1265	1.239989e-01	7.663755e+00	6.287393e-02	
1266	1.240989e-01	7.663755e+00	6.287391e-02	
1267	1.241989e-01	7.663755e+00	6.287393e-02	
1268	1.242989e-01	7.663755e+00	6.287391e-02	
1269	1.243989e-01	7.663755e+00	6.287393e-02	
1270	1.244989e-01	7.663755e+00	6.287391e-02	
1271	1.245989e-01	7.663755e+00	6.287393e-02	
1272	1.246989e-01	7.663755e+00	6.287391e-02	

Index   time            v(diag_pin)     v(mcu_gpio)     
--------------------------------------------------------------------------------
1273	1.247989e-01	7.663755e+00	6.287393e-02	
1274	1.248989e-01	7.663755e+00	6.287391e-02	
1275	1.249989e-01	7.663755e+00	6.287393e-02	
1276	1.250989e-01	7.663755e+00	6.287391e-02	
1277	1.251989e-01	7.663755e+00	6.287393e-02	
1278	1.252989e-01	7.663755e+00	6.287391e-02	
1279	1.253989e-01	7.663755e+00	6.287393e-02	
1280	1.254989e-01	7.663755e+00	6.287391e-02	
1281	1.255989e-01	7.663755e+00	6.287393e-02	
1282	1.256989e-01	7.663755e+00	6.287391e-02	
1283	1.257989e-01	7.663755e+00	6.287393e-02	
1284	1.258989e-01	7.663755e+00	6.287391e-02	
1285	1.259989e-01	7.663755e+00	6.287393e-02	
1286	1.260989e-01	7.663755e+00	6.287391e-02	
1287	1.261989e-01	7.663755e+00	6.287393e-02	
1288	1.262989e-01	7.663755e+00	6.287391e-02	
1289	1.263989e-01	7.663755e+00	6.287393e-02	
1290	1.264989e-01	7.663755e+00	6.287391e-02	
1291	1.265989e-01	7.663755e+00	6.287393e-02	
1292	1.266989e-01	7.663755e+00	6.287391e-02	
1293	1.267989e-01	7.663755e+00	6.287393e-02	
1294	1.268989e-01	7.663755e+00	6.287391e-02	
1295	1.269989e-01	7.663755e+00	6.287393e-02	
1296	1.270989e-01	7.663755e+00	6.287391e-02	
1297	1.271989e-01	7.663755e+00	6.287393e-02	
1298	1.272989e-01	7.663755e+00	6.287391e-02	
1299	1.273989e-01	7.663755e+00	6.287393e-02	
1300	1.274989e-01	7.663755e+00	6.287391e-02	
1301	1.275989e-01	7.663755e+00	6.287393e-02	
1302	1.276989e-01	7.663755e+00	6.287391e-02	
1303	1.277989e-01	7.663755e+00	6.287393e-02	
1304	1.278989e-01	7.663755e+00	6.287391e-02	
1305	1.279989e-01	7.663755e+00	6.287393e-02	
1306	1.280989e-01	7.663755e+00	6.287391e-02	
1307	1.281989e-01	7.663755e+00	6.287393e-02	
1308	1.282989e-01	7.663755e+00	6.287391e-02	
1309	1.283989e-01	7.663755e+00	6.287393e-02	
1310	1.284989e-01	7.663755e+00	6.287391e-02	
1311	1.285989e-01	7.663755e+00	6.287393e-02	
1312	1.286989e-01	7.663755e+00	6.287391e-02	
1313	1.287989e-01	7.663755e+00	6.287393e-02	
1314	1.288989e-01	7.663755e+00	6.287392e-02	
1315	1.289989e-01	7.663755e+00	6.287393e-02	
1316	1.290989e-01	7.663755e+00	6.287392e-02	
1317	1.291989e-01	7.663755e+00	6.287393e-02	
1318	1.292989e-01	7.663755e+00	6.287392e-02	
1319	1.293989e-01	7.663755e+00	6.287393e-02	
1320	1.294989e-01	7.663755e+00	6.287392e-02	
1321	1.295989e-01	7.663755e+00	6.287393e-02	
1322	1.296989e-01	7.663755e+00	6.287392e-02	
1323	1.297989e-01	7.663755e+00	6.287393e-02	
1324	1.298989e-01	7.663755e+00	6.287392e-02	
1325	1.299989e-01	7.663755e+00	6.287393e-02	
1326	1.300989e-01	7.663755e+00	6.287392e-02	
1327	1.301989e-01	7.663755e+00	6.287393e-02	
1328	1.302989e-01	7.663755e+00	6.287392e-02	
1329	1.303989e-01	7.663755e+00	6.287393e-02	
1330	1.304989e-01	7.663755e+00	6.287392e-02	

Index   time            v(diag_pin)     v(mcu_gpio)     
--------------------------------------------------------------------------------
1331	1.305989e-01	7.663755e+00	6.287393e-02	
1332	1.306989e-01	7.663755e+00	6.287392e-02	
1333	1.307989e-01	7.663755e+00	6.287393e-02	
1334	1.308989e-01	7.663755e+00	6.287392e-02	
1335	1.309989e-01	7.663755e+00	6.287393e-02	
1336	1.310989e-01	7.663755e+00	6.287392e-02	
1337	1.311989e-01	7.663755e+00	6.287393e-02	
1338	1.312989e-01	7.663755e+00	6.287392e-02	
1339	1.313989e-01	7.663755e+00	6.287393e-02	
1340	1.314989e-01	7.663755e+00	6.287392e-02	
1341	1.315989e-01	7.663755e+00	6.287393e-02	
1342	1.316989e-01	7.663755e+00	6.287392e-02	
1343	1.317989e-01	7.663755e+00	6.287393e-02	
1344	1.318989e-01	7.663755e+00	6.287392e-02	
1345	1.319989e-01	7.663755e+00	6.287393e-02	
1346	1.320989e-01	7.663755e+00	6.287392e-02	
1347	1.321989e-01	7.663755e+00	6.287393e-02	
1348	1.322989e-01	7.663755e+00	6.287392e-02	
1349	1.323989e-01	7.663755e+00	6.287393e-02	
1350	1.324989e-01	7.663755e+00	6.287392e-02	
1351	1.325989e-01	7.663755e+00	6.287393e-02	
1352	1.326989e-01	7.663755e+00	6.287392e-02	
1353	1.327989e-01	7.663755e+00	6.287393e-02	
1354	1.328989e-01	7.663755e+00	6.287392e-02	
1355	1.329989e-01	7.663755e+00	6.287393e-02	
1356	1.330989e-01	7.663755e+00	6.287392e-02	
1357	1.331989e-01	7.663755e+00	6.287393e-02	
1358	1.332989e-01	7.663755e+00	6.287392e-02	
1359	1.333989e-01	7.663755e+00	6.287393e-02	
1360	1.334989e-01	7.663755e+00	6.287392e-02	
1361	1.335989e-01	7.663755e+00	6.287393e-02	
1362	1.336989e-01	7.663755e+00	6.287392e-02	
1363	1.337989e-01	7.663755e+00	6.287393e-02	
1364	1.338989e-01	7.663755e+00	6.287392e-02	
1365	1.339989e-01	7.663755e+00	6.287393e-02	
1366	1.340989e-01	7.663755e+00	6.287392e-02	
1367	1.341989e-01	7.663755e+00	6.287393e-02	
1368	1.342989e-01	7.663755e+00	6.287392e-02	
1369	1.343989e-01	7.663755e+00	6.287393e-02	
1370	1.344989e-01	7.663755e+00	6.287392e-02	
1371	1.345989e-01	7.663755e+00	6.287393e-02	
1372	1.346989e-01	7.663755e+00	6.287392e-02	
1373	1.347989e-01	7.663755e+00	6.287393e-02	
1374	1.348989e-01	7.663755e+00	6.287392e-02	
1375	1.349989e-01	7.663755e+00	6.287393e-02	
1376	1.350989e-01	7.663755e+00	6.287392e-02	
1377	1.351989e-01	7.663755e+00	6.287393e-02	
1378	1.352989e-01	7.663755e+00	6.287392e-02	
1379	1.353989e-01	7.663755e+00	6.287393e-02	
1380	1.354989e-01	7.663755e+00	6.287392e-02	
1381	1.355989e-01	7.663755e+00	6.287393e-02	
1382	1.356989e-01	7.663755e+00	6.287392e-02	
1383	1.357989e-01	7.663755e+00	6.287393e-02	
1384	1.358989e-01	7.663755e+00	6.287392e-02	
1385	1.359989e-01	7.663755e+00	6.287393e-02	
1386	1.360989e-01	7.663755e+00	6.287392e-02	
1387	1.361989e-01	7.663755e+00	6.287393e-02	
1388	1.362989e-01	7.663755e+00	6.287392e-02	

Index   time            v(diag_pin)     v(mcu_gpio)     
--------------------------------------------------------------------------------
1389	1.363989e-01	7.663755e+00	6.287393e-02	
1390	1.364989e-01	7.663755e+00	6.287392e-02	
1391	1.365989e-01	7.663755e+00	6.287393e-02	
1392	1.366989e-01	7.663755e+00	6.287392e-02	
1393	1.367989e-01	7.663755e+00	6.287393e-02	
1394	1.368989e-01	7.663755e+00	6.287392e-02	
1395	1.369989e-01	7.663755e+00	6.287393e-02	
1396	1.370989e-01	7.663755e+00	6.287392e-02	
1397	1.371989e-01	7.663755e+00	6.287393e-02	
1398	1.372989e-01	7.663755e+00	6.287392e-02	
1399	1.373989e-01	7.663755e+00	6.287393e-02	
1400	1.374989e-01	7.663755e+00	6.287392e-02	
1401	1.375989e-01	7.663755e+00	6.287393e-02	
1402	1.376989e-01	7.663755e+00	6.287392e-02	
1403	1.377989e-01	7.663755e+00	6.287393e-02	
1404	1.378989e-01	7.663755e+00	6.287392e-02	
1405	1.379989e-01	7.663755e+00	6.287393e-02	
1406	1.380989e-01	7.663755e+00	6.287392e-02	
1407	1.381989e-01	7.663755e+00	6.287393e-02	
1408	1.382989e-01	7.663755e+00	6.287392e-02	
1409	1.383989e-01	7.663755e+00	6.287393e-02	
1410	1.384989e-01	7.663755e+00	6.287392e-02	
1411	1.385989e-01	7.663755e+00	6.287393e-02	
1412	1.386989e-01	7.663755e+00	6.287392e-02	
1413	1.387989e-01	7.663755e+00	6.287393e-02	
1414	1.388989e-01	7.663755e+00	6.287392e-02	
1415	1.389989e-01	7.663755e+00	6.287393e-02	
1416	1.390989e-01	7.663755e+00	6.287392e-02	
1417	1.391989e-01	7.663755e+00	6.287393e-02	
1418	1.392989e-01	7.663755e+00	6.287392e-02	
1419	1.393989e-01	7.663755e+00	6.287393e-02	
1420	1.394989e-01	7.663755e+00	6.287392e-02	
1421	1.395989e-01	7.663755e+00	6.287393e-02	
1422	1.396989e-01	7.663755e+00	6.287392e-02	
1423	1.397989e-01	7.663755e+00	6.287393e-02	
1424	1.398989e-01	7.663755e+00	6.287392e-02	
1425	1.399989e-01	7.663755e+00	6.287393e-02	
1426	1.400989e-01	7.663755e+00	6.287392e-02	
1427	1.401989e-01	7.663755e+00	6.287393e-02	
1428	1.402989e-01	7.663755e+00	6.287392e-02	
1429	1.403989e-01	7.663755e+00	6.287393e-02	
1430	1.404989e-01	7.663755e+00	6.287392e-02	
1431	1.405989e-01	7.663755e+00	6.287393e-02	
1432	1.406989e-01	7.663755e+00	6.287392e-02	
1433	1.407989e-01	7.663755e+00	6.287393e-02	
1434	1.408989e-01	7.663755e+00	6.287392e-02	
1435	1.409989e-01	7.663755e+00	6.287393e-02	
1436	1.410989e-01	7.663755e+00	6.287392e-02	
1437	1.411989e-01	7.663755e+00	6.287393e-02	
1438	1.412989e-01	7.663755e+00	6.287392e-02	
1439	1.413989e-01	7.663755e+00	6.287393e-02	
1440	1.414989e-01	7.663755e+00	6.287392e-02	
1441	1.415989e-01	7.663755e+00	6.287393e-02	
1442	1.416989e-01	7.663755e+00	6.287392e-02	
1443	1.417989e-01	7.663755e+00	6.287393e-02	
1444	1.418989e-01	7.663755e+00	6.287392e-02	
1445	1.419989e-01	7.663755e+00	6.287393e-02	
1446	1.420989e-01	7.663755e+00	6.287392e-02	

Index   time            v(diag_pin)     v(mcu_gpio)     
--------------------------------------------------------------------------------
1447	1.421989e-01	7.663755e+00	6.287393e-02	
1448	1.422989e-01	7.663755e+00	6.287392e-02	
1449	1.423989e-01	7.663755e+00	6.287393e-02	
1450	1.424989e-01	7.663755e+00	6.287392e-02	
1451	1.425989e-01	7.663755e+00	6.287393e-02	
1452	1.426989e-01	7.663755e+00	6.287392e-02	
1453	1.427989e-01	7.663755e+00	6.287393e-02	
1454	1.428989e-01	7.663755e+00	6.287392e-02	
1455	1.429989e-01	7.663755e+00	6.287393e-02	
1456	1.430989e-01	7.663755e+00	6.287392e-02	
1457	1.431989e-01	7.663755e+00	6.287393e-02	
1458	1.432989e-01	7.663755e+00	6.287392e-02	
1459	1.433989e-01	7.663755e+00	6.287393e-02	
1460	1.434989e-01	7.663755e+00	6.287392e-02	
1461	1.435989e-01	7.663755e+00	6.287393e-02	
1462	1.436989e-01	7.663755e+00	6.287392e-02	
1463	1.437989e-01	7.663755e+00	6.287393e-02	
1464	1.438989e-01	7.663755e+00	6.287392e-02	
1465	1.439989e-01	7.663755e+00	6.287393e-02	
1466	1.440989e-01	7.663755e+00	6.287392e-02	
1467	1.441989e-01	7.663755e+00	6.287393e-02	
1468	1.442989e-01	7.663755e+00	6.287392e-02	
1469	1.443989e-01	7.663755e+00	6.287393e-02	
1470	1.444989e-01	7.663755e+00	6.287392e-02	
1471	1.445989e-01	7.663755e+00	6.287393e-02	
1472	1.446989e-01	7.663755e+00	6.287392e-02	
1473	1.447989e-01	7.663755e+00	6.287393e-02	
1474	1.448989e-01	7.663755e+00	6.287392e-02	
1475	1.449989e-01	7.663755e+00	6.287393e-02	
1476	1.450989e-01	7.663755e+00	6.287392e-02	
1477	1.451989e-01	7.663755e+00	6.287393e-02	
1478	1.452989e-01	7.663755e+00	6.287392e-02	
1479	1.453989e-01	7.663755e+00	6.287393e-02	
1480	1.454989e-01	7.663755e+00	6.287392e-02	
1481	1.455989e-01	7.663755e+00	6.287393e-02	
1482	1.456989e-01	7.663755e+00	6.287392e-02	
1483	1.457989e-01	7.663755e+00	6.287393e-02	
1484	1.458989e-01	7.663755e+00	6.287392e-02	
1485	1.459989e-01	7.663755e+00	6.287393e-02	
1486	1.460989e-01	7.663755e+00	6.287392e-02	
1487	1.461989e-01	7.663755e+00	6.287393e-02	
1488	1.462989e-01	7.663755e+00	6.287392e-02	
1489	1.463989e-01	7.663755e+00	6.287393e-02	
1490	1.464989e-01	7.663755e+00	6.287392e-02	
1491	1.465989e-01	7.663755e+00	6.287393e-02	
1492	1.466989e-01	7.663755e+00	6.287392e-02	
1493	1.467989e-01	7.663755e+00	6.287393e-02	
1494	1.468989e-01	7.663755e+00	6.287392e-02	
1495	1.469989e-01	7.663755e+00	6.287393e-02	
1496	1.470989e-01	7.663755e+00	6.287392e-02	
1497	1.471989e-01	7.663755e+00	6.287393e-02	
1498	1.472989e-01	7.663755e+00	6.287392e-02	
1499	1.473989e-01	7.663755e+00	6.287393e-02	
1500	1.474989e-01	7.663755e+00	6.287392e-02	
1501	1.475989e-01	7.663755e+00	6.287393e-02	
1502	1.476989e-01	7.663755e+00	6.287392e-02	
1503	1.477989e-01	7.663755e+00	6.287393e-02	
1504	1.478989e-01	7.663755e+00	6.287392e-02	

Index   time            v(diag_pin)     v(mcu_gpio)     
--------------------------------------------------------------------------------
1505	1.479989e-01	7.663755e+00	6.287393e-02	
1506	1.480989e-01	7.663755e+00	6.287392e-02	
1507	1.481989e-01	7.663755e+00	6.287393e-02	
1508	1.482989e-01	7.663755e+00	6.287392e-02	
1509	1.483989e-01	7.663755e+00	6.287393e-02	
1510	1.484989e-01	7.663755e+00	6.287392e-02	
1511	1.485989e-01	7.663755e+00	6.287393e-02	
1512	1.486989e-01	7.663755e+00	6.287392e-02	
1513	1.487989e-01	7.663755e+00	6.287393e-02	
1514	1.488989e-01	7.663755e+00	6.287392e-02	
1515	1.489989e-01	7.663755e+00	6.287393e-02	
1516	1.490989e-01	7.663755e+00	6.287392e-02	
1517	1.491989e-01	7.663755e+00	6.287393e-02	
1518	1.492989e-01	7.663755e+00	6.287392e-02	
1519	1.493989e-01	7.663755e+00	6.287393e-02	
1520	1.494989e-01	7.663755e+00	6.287392e-02	
1521	1.495989e-01	7.663755e+00	6.287393e-02	
1522	1.496989e-01	7.663755e+00	6.287392e-02	
1523	1.497989e-01	7.663755e+00	6.287393e-02	
1524	1.498989e-01	7.663755e+00	6.287392e-02	
1525	1.499989e-01	7.663755e+00	6.287393e-02	
1526	1.500989e-01	7.663755e+00	6.287392e-02	
1527	1.501989e-01	7.663755e+00	6.287393e-02	
1528	1.502989e-01	7.663755e+00	6.287392e-02	
1529	1.503989e-01	7.663755e+00	6.287393e-02	
1530	1.504989e-01	7.663755e+00	6.287392e-02	
1531	1.505989e-01	7.663755e+00	6.287393e-02	
1532	1.506989e-01	7.663755e+00	6.287392e-02	
1533	1.507989e-01	7.663755e+00	6.287393e-02	
1534	1.508989e-01	7.663755e+00	6.287392e-02	
1535	1.509989e-01	7.663755e+00	6.287393e-02	
1536	1.510989e-01	7.663755e+00	6.287392e-02	
1537	1.511989e-01	7.663755e+00	6.287393e-02	
1538	1.512989e-01	7.663755e+00	6.287392e-02	
1539	1.513989e-01	7.663755e+00	6.287393e-02	
1540	1.514989e-01	7.663755e+00	6.287392e-02	
1541	1.515989e-01	7.663755e+00	6.287393e-02	
1542	1.516989e-01	7.663755e+00	6.287392e-02	
1543	1.517989e-01	7.663755e+00	6.287393e-02	
1544	1.518989e-01	7.663755e+00	6.287392e-02	
1545	1.519989e-01	7.663755e+00	6.287393e-02	
1546	1.520989e-01	7.663755e+00	6.287392e-02	
1547	1.521989e-01	7.663755e+00	6.287393e-02	
1548	1.522989e-01	7.663755e+00	6.287392e-02	
1549	1.523989e-01	7.663755e+00	6.287393e-02	
1550	1.524989e-01	7.663755e+00	6.287392e-02	
1551	1.525989e-01	7.663755e+00	6.287393e-02	
1552	1.526989e-01	7.663755e+00	6.287392e-02	
1553	1.527989e-01	7.663755e+00	6.287393e-02	
1554	1.528989e-01	7.663755e+00	6.287392e-02	
1555	1.529989e-01	7.663755e+00	6.287393e-02	
1556	1.530989e-01	7.663755e+00	6.287392e-02	
1557	1.531989e-01	7.663755e+00	6.287393e-02	
1558	1.532989e-01	7.663755e+00	6.287392e-02	
1559	1.533989e-01	7.663755e+00	6.287393e-02	
1560	1.534989e-01	7.663755e+00	6.287392e-02	
1561	1.535989e-01	7.663755e+00	6.287393e-02	
1562	1.536989e-01	7.663755e+00	6.287392e-02	

Index   time            v(diag_pin)     v(mcu_gpio)     
--------------------------------------------------------------------------------
1563	1.537989e-01	7.663755e+00	6.287393e-02	
1564	1.538989e-01	7.663755e+00	6.287392e-02	
1565	1.539989e-01	7.663755e+00	6.287393e-02	
1566	1.540989e-01	7.663755e+00	6.287392e-02	
1567	1.541989e-01	7.663755e+00	6.287393e-02	
1568	1.542989e-01	7.663755e+00	6.287392e-02	
1569	1.543989e-01	7.663755e+00	6.287393e-02	
1570	1.544989e-01	7.663755e+00	6.287392e-02	
1571	1.545989e-01	7.663755e+00	6.287393e-02	
1572	1.546989e-01	7.663755e+00	6.287392e-02	
1573	1.547989e-01	7.663755e+00	6.287393e-02	
1574	1.548989e-01	7.663755e+00	6.287392e-02	
1575	1.549989e-01	7.663755e+00	6.287393e-02	
1576	1.550989e-01	7.663755e+00	6.287392e-02	
1577	1.551989e-01	7.663755e+00	6.287393e-02	
1578	1.552989e-01	7.663755e+00	6.287392e-02	
1579	1.553989e-01	7.663755e+00	6.287393e-02	
1580	1.554989e-01	7.663755e+00	6.287392e-02	
1581	1.555989e-01	7.663755e+00	6.287393e-02	
1582	1.556989e-01	7.663755e+00	6.287392e-02	
1583	1.557989e-01	7.663755e+00	6.287393e-02	
1584	1.558989e-01	7.663755e+00	6.287392e-02	
1585	1.559989e-01	7.663755e+00	6.287393e-02	
1586	1.560989e-01	7.663755e+00	6.287392e-02	
1587	1.561989e-01	7.663755e+00	6.287393e-02	
1588	1.562989e-01	7.663755e+00	6.287392e-02	
1589	1.563989e-01	7.663755e+00	6.287393e-02	
1590	1.564989e-01	7.663755e+00	6.287392e-02	
1591	1.565989e-01	7.663755e+00	6.287393e-02	
1592	1.566989e-01	7.663755e+00	6.287392e-02	
1593	1.567989e-01	7.663755e+00	6.287393e-02	
1594	1.568989e-01	7.663755e+00	6.287392e-02	
1595	1.569989e-01	7.663755e+00	6.287393e-02	
1596	1.570989e-01	7.663755e+00	6.287392e-02	
1597	1.571989e-01	7.663755e+00	6.287393e-02	
1598	1.572989e-01	7.663755e+00	6.287392e-02	
1599	1.573989e-01	7.663755e+00	6.287393e-02	
1600	1.574989e-01	7.663755e+00	6.287392e-02	
1601	1.575989e-01	7.663755e+00	6.287393e-02	
1602	1.576989e-01	7.663755e+00	6.287392e-02	
1603	1.577989e-01	7.663755e+00	6.287393e-02	
1604	1.578989e-01	7.663755e+00	6.287392e-02	
1605	1.579989e-01	7.663755e+00	6.287393e-02	
1606	1.580989e-01	7.663755e+00	6.287392e-02	
1607	1.581989e-01	7.663755e+00	6.287393e-02	
1608	1.582989e-01	7.663755e+00	6.287392e-02	
1609	1.583989e-01	7.663755e+00	6.287393e-02	
1610	1.584989e-01	7.663755e+00	6.287392e-02	
1611	1.585989e-01	7.663755e+00	6.287393e-02	
1612	1.586989e-01	7.663755e+00	6.287392e-02	
1613	1.587989e-01	7.663755e+00	6.287393e-02	
1614	1.588989e-01	7.663755e+00	6.287392e-02	
1615	1.589989e-01	7.663755e+00	6.287393e-02	
1616	1.590989e-01	7.663755e+00	6.287392e-02	
1617	1.591989e-01	7.663755e+00	6.287393e-02	
1618	1.592989e-01	7.663755e+00	6.287392e-02	
1619	1.593989e-01	7.663755e+00	6.287393e-02	
1620	1.594989e-01	7.663755e+00	6.287392e-02	

Index   time            v(diag_pin)     v(mcu_gpio)     
--------------------------------------------------------------------------------
1621	1.595989e-01	7.663755e+00	6.287393e-02	
1622	1.596989e-01	7.663755e+00	6.287392e-02	
1623	1.597989e-01	7.663755e+00	6.287393e-02	
1624	1.598989e-01	7.663755e+00	6.287392e-02	
1625	1.599989e-01	7.663755e+00	6.287393e-02	
1626	1.600989e-01	7.663755e+00	6.287392e-02	
1627	1.601989e-01	7.663755e+00	6.287393e-02	
1628	1.602989e-01	7.663755e+00	6.287392e-02	
1629	1.603989e-01	7.663755e+00	6.287393e-02	
1630	1.604989e-01	7.663755e+00	6.287392e-02	
1631	1.605989e-01	7.663755e+00	6.287393e-02	
1632	1.606989e-01	7.663755e+00	6.287392e-02	
1633	1.607989e-01	7.663755e+00	6.287393e-02	
1634	1.608989e-01	7.663755e+00	6.287392e-02	
1635	1.609989e-01	7.663755e+00	6.287393e-02	
1636	1.610989e-01	7.663755e+00	6.287392e-02	
1637	1.611989e-01	7.663755e+00	6.287393e-02	
1638	1.612989e-01	7.663755e+00	6.287392e-02	
1639	1.613989e-01	7.663755e+00	6.287393e-02	
1640	1.614989e-01	7.663755e+00	6.287392e-02	
1641	1.615989e-01	7.663755e+00	6.287393e-02	
1642	1.616989e-01	7.663755e+00	6.287392e-02	
1643	1.617989e-01	7.663755e+00	6.287393e-02	
1644	1.618989e-01	7.663755e+00	6.287392e-02	
1645	1.619989e-01	7.663755e+00	6.287393e-02	
1646	1.620989e-01	7.663755e+00	6.287392e-02	
1647	1.621989e-01	7.663755e+00	6.287393e-02	
1648	1.622989e-01	7.663755e+00	6.287392e-02	
1649	1.623989e-01	7.663755e+00	6.287393e-02	
1650	1.624989e-01	7.663755e+00	6.287392e-02	
1651	1.625989e-01	7.663755e+00	6.287393e-02	
1652	1.626989e-01	7.663755e+00	6.287392e-02	
1653	1.627989e-01	7.663755e+00	6.287393e-02	
1654	1.628989e-01	7.663755e+00	6.287392e-02	
1655	1.629989e-01	7.663755e+00	6.287393e-02	
1656	1.630989e-01	7.663755e+00	6.287392e-02	
1657	1.631989e-01	7.663755e+00	6.287393e-02	
1658	1.632989e-01	7.663755e+00	6.287392e-02	
1659	1.633989e-01	7.663755e+00	6.287393e-02	
1660	1.634989e-01	7.663755e+00	6.287392e-02	
1661	1.635989e-01	7.663755e+00	6.287393e-02	
1662	1.636989e-01	7.663755e+00	6.287392e-02	
1663	1.637989e-01	7.663755e+00	6.287393e-02	
1664	1.638989e-01	7.663755e+00	6.287392e-02	
1665	1.639989e-01	7.663755e+00	6.287393e-02	
1666	1.640989e-01	7.663755e+00	6.287392e-02	
1667	1.641989e-01	7.663755e+00	6.287393e-02	
1668	1.642989e-01	7.663755e+00	6.287392e-02	
1669	1.643989e-01	7.663755e+00	6.287393e-02	
1670	1.644989e-01	7.663755e+00	6.287392e-02	
1671	1.645989e-01	7.663755e+00	6.287393e-02	
1672	1.646989e-01	7.663755e+00	6.287392e-02	
1673	1.647989e-01	7.663755e+00	6.287393e-02	
1674	1.648989e-01	7.663755e+00	6.287392e-02	
1675	1.649989e-01	7.663755e+00	6.287393e-02	
1676	1.650989e-01	7.663755e+00	6.287392e-02	
1677	1.651989e-01	7.663755e+00	6.287393e-02	
1678	1.652989e-01	7.663755e+00	6.287392e-02	

Index   time            v(diag_pin)     v(mcu_gpio)     
--------------------------------------------------------------------------------
1679	1.653989e-01	7.663755e+00	6.287393e-02	
1680	1.654989e-01	7.663755e+00	6.287392e-02	
1681	1.655989e-01	7.663755e+00	6.287393e-02	
1682	1.656989e-01	7.663755e+00	6.287392e-02	
1683	1.657989e-01	7.663755e+00	6.287393e-02	
1684	1.658989e-01	7.663755e+00	6.287392e-02	
1685	1.659989e-01	7.663755e+00	6.287393e-02	
[...]
49845	4.960889e+00	7.663755e+00	6.287132e-02	
49846	4.960989e+00	7.663756e+00	6.287651e-02	
49847	4.961089e+00	7.663755e+00	6.287133e-02	
49848	4.961189e+00	7.663756e+00	6.287650e-02	
49849	4.961289e+00	7.663755e+00	6.287135e-02	
49850	4.961389e+00	7.663756e+00	6.287648e-02	
49851	4.961489e+00	7.663755e+00	6.287136e-02	
49852	4.961589e+00	7.663756e+00	6.287647e-02	
49853	4.961689e+00	7.663755e+00	6.287137e-02	
49854	4.961789e+00	7.663756e+00	6.287646e-02	
49855	4.961889e+00	7.663755e+00	6.287139e-02	
49856	4.961989e+00	7.663756e+00	6.287644e-02	
49857	4.962089e+00	7.663755e+00	6.287140e-02	
49858	4.962189e+00	7.663756e+00	6.287643e-02	
49859	4.962289e+00	7.663755e+00	6.287141e-02	
49860	4.962389e+00	7.663756e+00	6.287642e-02	
49861	4.962489e+00	7.663755e+00	6.287142e-02	
49862	4.962589e+00	7.663756e+00	6.287641e-02	
49863	4.962689e+00	7.663755e+00	6.287144e-02	
49864	4.962789e+00	7.663756e+00	6.287639e-02	
49865	4.962889e+00	7.663755e+00	6.287145e-02	
49866	4.962989e+00	7.663756e+00	6.287638e-02	
49867	4.963089e+00	7.663755e+00	6.287146e-02	
49868	4.963189e+00	7.663756e+00	6.287637e-02	
49869	4.963289e+00	7.663755e+00	6.287147e-02	
49870	4.963389e+00	7.663756e+00	6.287636e-02	
49871	4.963489e+00	7.663755e+00	6.287149e-02	
49872	4.963589e+00	7.663756e+00	6.287635e-02	
49873	4.963689e+00	7.663755e+00	6.287150e-02	
49874	4.963789e+00	7.663756e+00	6.287633e-02	
49875	4.963889e+00	7.663755e+00	6.287151e-02	
49876	4.963989e+00	7.663756e+00	6.287632e-02	

Index   time            v(diag_pin)     v(mcu_gpio)     
--------------------------------------------------------------------------------
49877	4.964089e+00	7.663755e+00	6.287152e-02	
49878	4.964189e+00	7.663756e+00	6.287631e-02	
49879	4.964289e+00	7.663755e+00	6.287154e-02	
49880	4.964389e+00	7.663756e+00	6.287630e-02	
49881	4.964489e+00	7.663755e+00	6.287155e-02	
49882	4.964589e+00	7.663756e+00	6.287628e-02	
49883	4.964689e+00	7.663755e+00	6.287156e-02	
49884	4.964789e+00	7.663756e+00	6.287627e-02	
49885	4.964889e+00	7.663755e+00	6.287157e-02	
49886	4.964989e+00	7.663756e+00	6.287626e-02	
49887	4.965089e+00	7.663755e+00	6.287158e-02	
49888	4.965189e+00	7.663756e+00	6.287625e-02	
49889	4.965289e+00	7.663755e+00	6.287159e-02	
49890	4.965389e+00	7.663756e+00	6.287624e-02	
49891	4.965489e+00	7.663755e+00	6.287161e-02	
49892	4.965589e+00	7.663756e+00	6.287623e-02	
49893	4.965689e+00	7.663755e+00	6.287162e-02	
49894	4.965789e+00	7.663756e+00	6.287621e-02	
49895	4.965889e+00	7.663755e+00	6.287163e-02	
49896	4.965989e+00	7.663756e+00	6.287620e-02	
49897	4.966089e+00	7.663755e+00	6.287164e-02	
49898	4.966189e+00	7.663756e+00	6.287619e-02	
49899	4.966289e+00	7.663755e+00	6.287165e-02	
49900	4.966389e+00	7.663756e+00	6.287618e-02	
49901	4.966489e+00	7.663755e+00	6.287166e-02	
49902	4.966589e+00	7.663756e+00	6.287617e-02	
49903	4.966689e+00	7.663755e+00	6.287168e-02	
49904	4.966789e+00	7.663756e+00	6.287616e-02	
49905	4.966889e+00	7.663755e+00	6.287169e-02	
49906	4.966989e+00	7.663756e+00	6.287615e-02	
49907	4.967089e+00	7.663755e+00	6.287170e-02	
49908	4.967189e+00	7.663756e+00	6.287613e-02	
49909	4.967289e+00	7.663755e+00	6.287171e-02	
49910	4.967389e+00	7.663756e+00	6.287612e-02	
49911	4.967489e+00	7.663755e+00	6.287172e-02	
49912	4.967589e+00	7.663756e+00	6.287611e-02	
49913	4.967689e+00	7.663755e+00	6.287173e-02	
49914	4.967789e+00	7.663756e+00	6.287610e-02	
49915	4.967889e+00	7.663755e+00	6.287174e-02	
49916	4.967989e+00	7.663756e+00	6.287609e-02	
49917	4.968089e+00	7.663755e+00	6.287175e-02	
49918	4.968189e+00	7.663756e+00	6.287608e-02	
49919	4.968289e+00	7.663755e+00	6.287177e-02	
49920	4.968389e+00	7.663756e+00	6.287607e-02	
49921	4.968489e+00	7.663755e+00	6.287178e-02	
49922	4.968589e+00	7.663756e+00	6.287606e-02	
49923	4.968689e+00	7.663755e+00	6.287179e-02	
49924	4.968789e+00	7.663756e+00	6.287605e-02	
49925	4.968889e+00	7.663755e+00	6.287180e-02	
49926	4.968989e+00	7.663756e+00	6.287604e-02	
49927	4.969089e+00	7.663755e+00	6.287181e-02	
49928	4.969189e+00	7.663756e+00	6.287602e-02	
49929	4.969289e+00	7.663755e+00	6.287182e-02	
49930	4.969389e+00	7.663756e+00	6.287601e-02	
49931	4.969489e+00	7.663755e+00	6.287183e-02	
49932	4.969589e+00	7.663756e+00	6.287600e-02	
49933	4.969689e+00	7.663755e+00	6.287184e-02	
49934	4.969789e+00	7.663756e+00	6.287599e-02	

Index   time            v(diag_pin)     v(mcu_gpio)     
--------------------------------------------------------------------------------
49935	4.969889e+00	7.663755e+00	6.287185e-02	
49936	4.969989e+00	7.663756e+00	6.287598e-02	
49937	4.970089e+00	7.663755e+00	6.287186e-02	
49938	4.970189e+00	7.663756e+00	6.287597e-02	
49939	4.970289e+00	7.663755e+00	6.287187e-02	
49940	4.970389e+00	7.663756e+00	6.287596e-02	
49941	4.970489e+00	7.663755e+00	6.287188e-02	
49942	4.970589e+00	7.663756e+00	6.287595e-02	
49943	4.970689e+00	7.663755e+00	6.287189e-02	
49944	4.970789e+00	7.663756e+00	6.287594e-02	
49945	4.970889e+00	7.663755e+00	6.287190e-02	
49946	4.970989e+00	7.663756e+00	6.287593e-02	
49947	4.971089e+00	7.663755e+00	6.287191e-02	
49948	4.971189e+00	7.663756e+00	6.287592e-02	
49949	4.971289e+00	7.663755e+00	6.287192e-02	
49950	4.971389e+00	7.663756e+00	6.287591e-02	
49951	4.971489e+00	7.663755e+00	6.287193e-02	
49952	4.971589e+00	7.663756e+00	6.287590e-02	
49953	4.971689e+00	7.663755e+00	6.287194e-02	
49954	4.971789e+00	7.663756e+00	6.287589e-02	
49955	4.971889e+00	7.663755e+00	6.287195e-02	
49956	4.971989e+00	7.663756e+00	6.287588e-02	
49957	4.972089e+00	7.663755e+00	6.287196e-02	
49958	4.972189e+00	7.663756e+00	6.287587e-02	
49959	4.972289e+00	7.663755e+00	6.287197e-02	
49960	4.972389e+00	7.663756e+00	6.287586e-02	
49961	4.972489e+00	7.663755e+00	6.287198e-02	
49962	4.972589e+00	7.663756e+00	6.287585e-02	
49963	4.972689e+00	7.663755e+00	6.287199e-02	
49964	4.972789e+00	7.663756e+00	6.287584e-02	
49965	4.972889e+00	7.663755e+00	6.287200e-02	
49966	4.972989e+00	7.663756e+00	6.287583e-02	
49967	4.973089e+00	7.663755e+00	6.287201e-02	
49968	4.973189e+00	7.663756e+00	6.287582e-02	
49969	4.973289e+00	7.663755e+00	6.287202e-02	
49970	4.973389e+00	7.663756e+00	6.287581e-02	
49971	4.973489e+00	7.663755e+00	6.287203e-02	
49972	4.973589e+00	7.663756e+00	6.287580e-02	
49973	4.973689e+00	7.663755e+00	6.287204e-02	
49974	4.973789e+00	7.663756e+00	6.287579e-02	
49975	4.973889e+00	7.663755e+00	6.287205e-02	
49976	4.973989e+00	7.663756e+00	6.287578e-02	
49977	4.974089e+00	7.663755e+00	6.287206e-02	
49978	4.974189e+00	7.663756e+00	6.287577e-02	
49979	4.974289e+00	7.663755e+00	6.287207e-02	
49980	4.974389e+00	7.663756e+00	6.287576e-02	
49981	4.974489e+00	7.663755e+00	6.287208e-02	
49982	4.974589e+00	7.663756e+00	6.287575e-02	
49983	4.974689e+00	7.663755e+00	6.287209e-02	
49984	4.974789e+00	7.663756e+00	6.287574e-02	
49985	4.974889e+00	7.663755e+00	6.287210e-02	
49986	4.974989e+00	7.663756e+00	6.287574e-02	
49987	4.975089e+00	7.663755e+00	6.287211e-02	
49988	4.975189e+00	7.663756e+00	6.287573e-02	
49989	4.975289e+00	7.663755e+00	6.287212e-02	
49990	4.975389e+00	7.663756e+00	6.287572e-02	
49991	4.975489e+00	7.663755e+00	6.287213e-02	
49992	4.975589e+00	7.663756e+00	6.287571e-02	

Index   time            v(diag_pin)     v(mcu_gpio)     
--------------------------------------------------------------------------------
49993	4.975689e+00	7.663755e+00	6.287214e-02	
49994	4.975789e+00	7.663756e+00	6.287570e-02	
49995	4.975889e+00	7.663755e+00	6.287215e-02	
49996	4.975989e+00	7.663756e+00	6.287569e-02	
49997	4.976089e+00	7.663755e+00	6.287216e-02	
49998	4.976189e+00	7.663756e+00	6.287568e-02	
49999	4.976289e+00	7.663755e+00	6.287216e-02	
50000	4.976389e+00	7.663756e+00	6.287567e-02	
50001	4.976489e+00	7.663755e+00	6.287217e-02	
50002	4.976589e+00	7.663756e+00	6.287566e-02	
50003	4.976689e+00	7.663755e+00	6.287218e-02	
50004	4.976789e+00	7.663756e+00	6.287565e-02	
50005	4.976889e+00	7.663755e+00	6.287219e-02	
50006	4.976989e+00	7.663756e+00	6.287564e-02	
50007	4.977089e+00	7.663755e+00	6.287220e-02	
50008	4.977189e+00	7.663756e+00	6.287564e-02	
50009	4.977289e+00	7.663755e+00	6.287221e-02	
50010	4.977389e+00	7.663756e+00	6.287563e-02	
50011	4.977489e+00	7.663755e+00	6.287222e-02	
50012	4.977589e+00	7.663756e+00	6.287562e-02	
50013	4.977689e+00	7.663755e+00	6.287223e-02	
50014	4.977789e+00	7.663756e+00	6.287561e-02	
50015	4.977889e+00	7.663755e+00	6.287224e-02	
50016	4.977989e+00	7.663756e+00	6.287560e-02	
50017	4.978089e+00	7.663755e+00	6.287224e-02	
50018	4.978189e+00	7.663756e+00	6.287559e-02	
50019	4.978289e+00	7.663755e+00	6.287225e-02	
50020	4.978389e+00	7.663756e+00	6.287558e-02	
50021	4.978489e+00	7.663755e+00	6.287226e-02	
50022	4.978589e+00	7.663756e+00	6.287557e-02	
50023	4.978689e+00	7.663755e+00	6.287227e-02	
50024	4.978789e+00	7.663756e+00	6.287557e-02	
50025	4.978889e+00	7.663755e+00	6.287228e-02	
50026	4.978989e+00	7.663756e+00	6.287556e-02	
50027	4.979089e+00	7.663755e+00	6.287229e-02	
50028	4.979189e+00	7.663756e+00	6.287555e-02	
50029	4.979289e+00	7.663755e+00	6.287229e-02	
50030	4.979389e+00	7.663756e+00	6.287554e-02	
50031	4.979489e+00	7.663755e+00	6.287230e-02	
50032	4.979589e+00	7.663756e+00	6.287553e-02	
50033	4.979689e+00	7.663755e+00	6.287231e-02	
50034	4.979789e+00	7.663756e+00	6.287552e-02	
50035	4.979889e+00	7.663755e+00	6.287232e-02	
50036	4.979989e+00	7.663756e+00	6.287552e-02	
50037	4.980089e+00	7.663755e+00	6.287233e-02	
50038	4.980189e+00	7.663756e+00	6.287551e-02	
50039	4.980289e+00	7.663755e+00	6.287234e-02	
50040	4.980389e+00	7.663756e+00	6.287550e-02	
50041	4.980489e+00	7.663755e+00	6.287234e-02	
50042	4.980589e+00	7.663756e+00	6.287549e-02	
50043	4.980689e+00	7.663755e+00	6.287235e-02	
50044	4.980789e+00	7.663756e+00	6.287548e-02	
50045	4.980889e+00	7.663755e+00	6.287236e-02	
50046	4.980989e+00	7.663756e+00	6.287548e-02	
50047	4.981089e+00	7.663755e+00	6.287237e-02	
50048	4.981189e+00	7.663756e+00	6.287547e-02	
50049	4.981289e+00	7.663755e+00	6.287238e-02	
50050	4.981389e+00	7.663756e+00	6.287546e-02	

Index   time            v(diag_pin)     v(mcu_gpio)     
--------------------------------------------------------------------------------
50051	4.981489e+00	7.663755e+00	6.287238e-02	
50052	4.981589e+00	7.663756e+00	6.287545e-02	
50053	4.981689e+00	7.663755e+00	6.287239e-02	
50054	4.981789e+00	7.663756e+00	6.287544e-02	
50055	4.981889e+00	7.663755e+00	6.287240e-02	
50056	4.981989e+00	7.663756e+00	6.287544e-02	
50057	4.982089e+00	7.663755e+00	6.287241e-02	
50058	4.982189e+00	7.663756e+00	6.287543e-02	
50059	4.982289e+00	7.663755e+00	6.287242e-02	
50060	4.982389e+00	7.663756e+00	6.287542e-02	
50061	4.982489e+00	7.663755e+00	6.287242e-02	
50062	4.982589e+00	7.663756e+00	6.287541e-02	
50063	4.982689e+00	7.663755e+00	6.287243e-02	
50064	4.982789e+00	7.663756e+00	6.287540e-02	
50065	4.982889e+00	7.663755e+00	6.287244e-02	
50066	4.982989e+00	7.663756e+00	6.287540e-02	
50067	4.983089e+00	7.663755e+00	6.287245e-02	
50068	4.983189e+00	7.663756e+00	6.287539e-02	
50069	4.983289e+00	7.663755e+00	6.287246e-02	
50070	4.983389e+00	7.663756e+00	6.287538e-02	
50071	4.983489e+00	7.663755e+00	6.287246e-02	
50072	4.983589e+00	7.663756e+00	6.287537e-02	
50073	4.983689e+00	7.663755e+00	6.287247e-02	
50074	4.983789e+00	7.663756e+00	6.287537e-02	
50075	4.983889e+00	7.663755e+00	6.287248e-02	
50076	4.983989e+00	7.663756e+00	6.287536e-02	
50077	4.984089e+00	7.663755e+00	6.287249e-02	
50078	4.984189e+00	7.663756e+00	6.287535e-02	
50079	4.984289e+00	7.663755e+00	6.287249e-02	
50080	4.984389e+00	7.663756e+00	6.287534e-02	
50081	4.984489e+00	7.663755e+00	6.287250e-02	
50082	4.984589e+00	7.663756e+00	6.287534e-02	
50083	4.984689e+00	7.663755e+00	6.287251e-02	
50084	4.984789e+00	7.663756e+00	6.287533e-02	
50085	4.984889e+00	7.663755e+00	6.287251e-02	
50086	4.984989e+00	7.663756e+00	6.287532e-02	
50087	4.985089e+00	7.663755e+00	6.287252e-02	
50088	4.985189e+00	7.663756e+00	6.287531e-02	
50089	4.985289e+00	7.663755e+00	6.287253e-02	
50090	4.985389e+00	7.663756e+00	6.287531e-02	
50091	4.985489e+00	7.663755e+00	6.287254e-02	
50092	4.985589e+00	7.663756e+00	6.287530e-02	
50093	4.985689e+00	7.663755e+00	6.287254e-02	
50094	4.985789e+00	7.663756e+00	6.287529e-02	
50095	4.985889e+00	7.663755e+00	6.287255e-02	
50096	4.985989e+00	7.663756e+00	6.287529e-02	
50097	4.986089e+00	7.663755e+00	6.287256e-02	
50098	4.986189e+00	7.663756e+00	6.287528e-02	
50099	4.986289e+00	7.663755e+00	6.287257e-02	
50100	4.986389e+00	7.663756e+00	6.287527e-02	
50101	4.986489e+00	7.663755e+00	6.287257e-02	
50102	4.986589e+00	7.663756e+00	6.287526e-02	
50103	4.986689e+00	7.663755e+00	6.287258e-02	
50104	4.986789e+00	7.663756e+00	6.287526e-02	
50105	4.986889e+00	7.663755e+00	6.287259e-02	
50106	4.986989e+00	7.663756e+00	6.287525e-02	
50107	4.987089e+00	7.663755e+00	6.287259e-02	
50108	4.987189e+00	7.663756e+00	6.287524e-02	

Index   time            v(diag_pin)     v(mcu_gpio)     
--------------------------------------------------------------------------------
50109	4.987289e+00	7.663755e+00	6.287260e-02	
50110	4.987389e+00	7.663756e+00	6.287524e-02	
50111	4.987489e+00	7.663755e+00	6.287261e-02	
50112	4.987589e+00	7.663756e+00	6.287523e-02	
50113	4.987689e+00	7.663755e+00	6.287261e-02	
50114	4.987789e+00	7.663756e+00	6.287522e-02	
50115	4.987889e+00	7.663755e+00	6.287262e-02	
50116	4.987989e+00	7.663756e+00	6.287522e-02	
50117	4.988089e+00	7.663755e+00	6.287263e-02	
50118	4.988189e+00	7.663756e+00	6.287521e-02	
50119	4.988289e+00	7.663755e+00	6.287263e-02	
50120	4.988389e+00	7.663756e+00	6.287520e-02	
50121	4.988489e+00	7.663755e+00	6.287264e-02	
50122	4.988589e+00	7.663756e+00	6.287520e-02	
50123	4.988689e+00	7.663755e+00	6.287265e-02	
50124	4.988789e+00	7.663756e+00	6.287519e-02	
50125	4.988889e+00	7.663755e+00	6.287265e-02	
50126	4.988989e+00	7.663756e+00	6.287518e-02	
50127	4.989089e+00	7.663755e+00	6.287266e-02	
50128	4.989189e+00	7.663756e+00	6.287518e-02	
50129	4.989289e+00	7.663755e+00	6.287267e-02	
50130	4.989389e+00	7.663756e+00	6.287517e-02	
50131	4.989489e+00	7.663755e+00	6.287267e-02	
50132	4.989589e+00	7.663756e+00	6.287516e-02	
50133	4.989689e+00	7.663755e+00	6.287268e-02	
50134	4.989789e+00	7.663756e+00	6.287516e-02	
50135	4.989889e+00	7.663755e+00	6.287269e-02	
50136	4.989989e+00	7.663756e+00	6.287515e-02	
50137	4.990089e+00	7.663755e+00	6.287269e-02	
50138	4.990189e+00	7.663756e+00	6.287514e-02	
50139	4.990289e+00	7.663755e+00	6.287270e-02	
50140	4.990389e+00	7.663756e+00	6.287514e-02	
50141	4.990489e+00	7.663755e+00	6.287271e-02	
50142	4.990589e+00	7.663756e+00	6.287513e-02	
50143	4.990689e+00	7.663755e+00	6.287271e-02	
50144	4.990789e+00	7.663756e+00	6.287512e-02	
50145	4.990889e+00	7.663755e+00	6.287272e-02	
50146	4.990989e+00	7.663756e+00	6.287512e-02	
50147	4.991089e+00	7.663755e+00	6.287273e-02	
50148	4.991189e+00	7.663756e+00	6.287511e-02	
50149	4.991289e+00	7.663755e+00	6.287273e-02	
50150	4.991389e+00	7.663756e+00	6.287511e-02	
50151	4.991489e+00	7.663755e+00	6.287274e-02	
50152	4.991589e+00	7.663756e+00	6.287510e-02	
50153	4.991689e+00	7.663755e+00	6.287275e-02	
50154	4.991789e+00	7.663756e+00	6.287509e-02	
50155	4.991889e+00	7.663755e+00	6.287275e-02	
50156	4.991989e+00	7.663756e+00	6.287509e-02	
50157	4.992089e+00	7.663755e+00	6.287276e-02	
50158	4.992189e+00	7.663756e+00	6.287508e-02	
50159	4.992289e+00	7.663755e+00	6.287276e-02	
50160	4.992389e+00	7.663756e+00	6.287507e-02	
50161	4.992489e+00	7.663755e+00	6.287277e-02	
50162	4.992589e+00	7.663756e+00	6.287507e-02	
50163	4.992689e+00	7.663755e+00	6.287278e-02	
50164	4.992789e+00	7.663756e+00	6.287506e-02	
50165	4.992889e+00	7.663755e+00	6.287278e-02	
50166	4.992989e+00	7.663756e+00	6.287506e-02	

Index   time            v(diag_pin)     v(mcu_gpio)     
--------------------------------------------------------------------------------
50167	4.993089e+00	7.663755e+00	6.287279e-02	
50168	4.993189e+00	7.663756e+00	6.287505e-02	
50169	4.993289e+00	7.663755e+00	6.287279e-02	
50170	4.993389e+00	7.663756e+00	6.287504e-02	
50171	4.993489e+00	7.663755e+00	6.287280e-02	
50172	4.993589e+00	7.663756e+00	6.287504e-02	
50173	4.993689e+00	7.663755e+00	6.287281e-02	
50174	4.993789e+00	7.663756e+00	6.287503e-02	
50175	4.993889e+00	7.663755e+00	6.287281e-02	
50176	4.993989e+00	7.663756e+00	6.287503e-02	
50177	4.994089e+00	7.663755e+00	6.287282e-02	
50178	4.994189e+00	7.663756e+00	6.287502e-02	
50179	4.994289e+00	7.663755e+00	6.287282e-02	
50180	4.994389e+00	7.663756e+00	6.287501e-02	
50181	4.994489e+00	7.663755e+00	6.287283e-02	
50182	4.994589e+00	7.663756e+00	6.287501e-02	
50183	4.994689e+00	7.663755e+00	6.287284e-02	
50184	4.994789e+00	7.663756e+00	6.287500e-02	
50185	4.994889e+00	7.663755e+00	6.287284e-02	
50186	4.994989e+00	7.663756e+00	6.287500e-02	
50187	4.995089e+00	7.663755e+00	6.287285e-02	
50188	4.995189e+00	7.663756e+00	6.287499e-02	
50189	4.995289e+00	7.663755e+00	6.287285e-02	
50190	4.995389e+00	7.663756e+00	6.287499e-02	
50191	4.995489e+00	7.663755e+00	6.287286e-02	
50192	4.995589e+00	7.663756e+00	6.287498e-02	
50193	4.995689e+00	7.663755e+00	6.287286e-02	
50194	4.995789e+00	7.663756e+00	6.287497e-02	
50195	4.995889e+00	7.663755e+00	6.287287e-02	
50196	4.995989e+00	7.663756e+00	6.287497e-02	
50197	4.996089e+00	7.663755e+00	6.287288e-02	
50198	4.996189e+00	7.663756e+00	6.287496e-02	
50199	4.996289e+00	7.663755e+00	6.287288e-02	
50200	4.996389e+00	7.663756e+00	6.287496e-02	
50201	4.996489e+00	7.663755e+00	6.287289e-02	
50202	4.996589e+00	7.663756e+00	6.287495e-02	
50203	4.996689e+00	7.663755e+00	6.287289e-02	
50204	4.996789e+00	7.663756e+00	6.287495e-02	
50205	4.996889e+00	7.663755e+00	6.287290e-02	
50206	4.996989e+00	7.663756e+00	6.287494e-02	
50207	4.997089e+00	7.663755e+00	6.287290e-02	
50208	4.997189e+00	7.663756e+00	6.287494e-02	
50209	4.997289e+00	7.663755e+00	6.287291e-02	
50210	4.997389e+00	7.663756e+00	6.287493e-02	
50211	4.997489e+00	7.663755e+00	6.287291e-02	
50212	4.997589e+00	7.663756e+00	6.287493e-02	
50213	4.997689e+00	7.663755e+00	6.287292e-02	
50214	4.997789e+00	7.663756e+00	6.287492e-02	
50215	4.997889e+00	7.663755e+00	6.287292e-02	
50216	4.997989e+00	7.663756e+00	6.287491e-02	
50217	4.998089e+00	7.663755e+00	6.287293e-02	
50218	4.998189e+00	7.663756e+00	6.287491e-02	
50219	4.998289e+00	7.663755e+00	6.287294e-02	
50220	4.998389e+00	7.663756e+00	6.287490e-02	
50221	4.998489e+00	7.663755e+00	6.287294e-02	
50222	4.998589e+00	7.663756e+00	6.287490e-02	
50223	4.998689e+00	7.663755e+00	6.287295e-02	
50224	4.998789e+00	7.663756e+00	6.287489e-02	

Index   time            v(diag_pin)     v(mcu_gpio)     
--------------------------------------------------------------------------------
50225	4.998889e+00	7.663755e+00	6.287295e-02	
50226	4.998989e+00	7.663756e+00	6.287489e-02	
50227	4.999089e+00	7.663755e+00	6.287296e-02	
50228	4.999189e+00	7.663756e+00	6.287488e-02	
50229	4.999289e+00	7.663755e+00	6.287296e-02	
50230	4.999389e+00	7.663756e+00	6.287488e-02	
50231	4.999489e+00	7.663755e+00	6.287297e-02	
50232	4.999589e+00	7.663756e+00	6.287487e-02	
50233	4.999689e+00	7.663755e+00	6.287297e-02	
50234	4.999789e+00	7.663756e+00	6.287487e-02	
50235	4.999889e+00	7.663755e+00	6.287298e-02	
50236	4.999989e+00	7.663756e+00	6.287486e-02	
50237	5.000000e+00	7.663755e+00	6.287300e-02	
Doing analysis at TEMP = 27.000000 and TNOM = 27.000000

Using SPARSE 1.3 as Direct Linear Solver
Operating point simulation skipped by 'uic',
  now using transient initial conditions.
 Reference value :  3.56729e+00
No. of Data Rows : 50238

  Measurements for Transient Analysis

v_mcu_idle          =  6.287411e-02 from=  0.000000e+00 to=  4.000989e-01
v_mcu_blink1_peak   =  3.309370e+00 at=  5.002470e-01
v_mcu_blink2_peak   =  3.299989e+00 at=  1.699823e+00
v_mcu_blink3_peak   =  3.308658e+00 at=  2.100233e+00
t_rise              =  3.086530e-05 targ=  5.002143e-01 trig=  5.001835e-01
t_fall              =  -9.017592e-01 targ=  1.009624e-06 trig=  9.017603e-01


Total analysis time (seconds) = 0.214312

Total elapsed time (seconds) = 0.281 

Total DRAM available = 24576.000 MB.
DRAM currently available =   99.641 MB.
Maximum ngspice program size =   14.797 MB.
Current ngspice program size =   14.797 MB.

