
Note: No compatibility mode selected!


Circuit: TB2: Code Clear Write Path Verification

Doing analysis at TEMP = 27.000000 and TNOM = 27.000000

Using SPARSE 1.3 as Direct Linear Solver
Operating point simulation skipped by 'uic',
  now using transient initial conditions.

No. of Data Rows : 120059

  Measurements for Transient Analysis

v_diag_idle         =  1.200000e+01 from=  1.000000e-01 to=  4.000270e-01
v_diag_pulled       =  6.209381e-02 at=  1.000150e+00
v_diag_released     =  1.200000e+01 from=  9.500000e+00 to=  1.000003e+01
t_pull_down         =  -1.337308e-04 targ=  5.003663e-01 trig=  5.005000e-01

Doing analysis at TEMP = 27.000000 and TNOM = 27.000000

Using SPARSE 1.3 as Direct Linear Solver
Operating point simulation skipped by 'uic',
  now using transient initial conditions.
 Reference value :  1.00000e-06
No. of Data Rows : 120059

  Measurements for Transient Analysis

v_diag_idle         =  1.200000e+01 from=  1.000000e-01 to=  4.000270e-01
v_diag_pulled       =  6.209381e-02 at=  1.000150e+00
v_diag_released     =  1.200000e+01 from=  9.500000e+00 to=  1.000003e+01
t_pull_down         =  -1.337308e-04 targ=  5.003663e-01 trig=  5.005000e-01


Total analysis time (seconds) = 0.466077

Total elapsed time (seconds) = 0.553 

Total DRAM available = 24576.000 MB.
DRAM currently available =  111.469 MB.
Maximum ngspice program size =   20.172 MB.
Current ngspice program size =   20.172 MB.

