
Note: No compatibility mode selected!


Circuit: TB4: Load Dump Transient Survival

Doing analysis at TEMP = 27.000000 and TNOM = 27.000000

Using SPARSE 1.3 as Direct Linear Solver
Operating point simulation skipped by 'uic',
  now using transient initial conditions.

No. of Data Rows : 10032

  Measurements for Transient Analysis

v_input_peak        =  1.199988e+01 at=  1.000000e-08
v5_deviation        =  4.998186e+00 at=  1.112500e-03
v5_min              =  6.763121e-02 at=  1.000000e-08
v3_deviation        =  3.339817e+00 at=  2.157598e-06
v3_min              =  0.000000e+00 at=  1.563869e-07

Doing analysis at TEMP = 27.000000 and TNOM = 27.000000

Using SPARSE 1.3 as Direct Linear Solver
Operating point simulation skipped by 'uic',
  now using transient initial conditions.

No. of Data Rows : 10032

  Measurements for Transient Analysis

v_input_peak        =  1.199988e+01 at=  1.000000e-08
v5_deviation        =  4.998186e+00 at=  1.112500e-03
v5_min              =  6.763121e-02 at=  1.000000e-08
v3_deviation        =  3.339817e+00 at=  2.157598e-06
v3_min              =  0.000000e+00 at=  1.563869e-07


Total analysis time (seconds) = 0.038776

Total elapsed time (seconds) = 0.052 

Total DRAM available = 24576.000 MB.
DRAM currently available =  123.141 MB.
Maximum ngspice program size =   11.000 MB.
Current ngspice program size =   11.000 MB.

