
Note: No compatibility mode selected!


Circuit: TB7: Alternator Noise Rejection Verification

Doing analysis at TEMP = 27.000000 and TNOM = 27.000000

Using SPARSE 1.3 as Direct Linear Solver
Operating point simulation skipped by 'uic',
  now using transient initial conditions.

No. of Data Rows : 20023

  Measurements for Transient Analysis

v3_ripple_pp        =  1.431744e-12 from=  1.000000e-02 to=  2.000000e-02
v5_ripple_pp        =  8.881784e-16 from=  1.000000e-02 to=  2.000000e-02
v_adc_ripple_pp     =  1.221906e-02 from=  1.000000e-02 to=  2.000000e-02

Doing analysis at TEMP = 27.000000 and TNOM = 27.000000

Using SPARSE 1.3 as Direct Linear Solver
Operating point simulation skipped by 'uic',
  now using transient initial conditions.

No. of Data Rows : 20023

  Measurements for Transient Analysis

v3_ripple_pp        =  1.431744e-12 from=  1.000000e-02 to=  2.000000e-02
v5_ripple_pp        =  8.881784e-16 from=  1.000000e-02 to=  2.000000e-02
v_adc_ripple_pp     =  1.221906e-02 from=  1.000000e-02 to=  2.000000e-02


Total analysis time (seconds) = 0.098813

Total elapsed time (seconds) = 0.121 

Total DRAM available = 24576.000 MB.
DRAM currently available =  123.141 MB.
Maximum ngspice program size =   12.062 MB.
Current ngspice program size =   12.062 MB.

