
Note: No compatibility mode selected!


Circuit: TB3: Power Supply Startup Verification

Doing analysis at TEMP = 27.000000 and TNOM = 27.000000

Using SPARSE 1.3 as Direct Linear Solver
Operating point simulation skipped by 'uic',
  now using transient initial conditions.

No. of Data Rows : 20023

  Measurements for Transient Analysis

v5_settled          =  4.998186e+00 from=  1.000000e-01 to=  1.900050e-01
v3_settled          =  3.298800e+00 from=  1.000000e-01 to=  1.900050e-01
v5_overshoot        =  4.998267e+00 at=  7.377715e-03
v3_overshoot        =  3.298895e+00 at=  6.877715e-03
t_5v_settle         =  1.156518e-03 targ=  7.156518e-03 trig=  6.000000e-03
t_3v3_settle        =  7.283056e-04 targ=  6.728306e-03 trig=  6.000000e-03

Doing analysis at TEMP = 27.000000 and TNOM = 27.000000

Using SPARSE 1.3 as Direct Linear Solver
Operating point simulation skipped by 'uic',
  now using transient initial conditions.

No. of Data Rows : 20023

  Measurements for Transient Analysis

v5_settled          =  4.998186e+00 from=  1.000000e-01 to=  1.900050e-01
v3_settled          =  3.298800e+00 from=  1.000000e-01 to=  1.900050e-01
v5_overshoot        =  4.998267e+00 at=  7.377715e-03
v3_overshoot        =  3.298895e+00 at=  6.877715e-03
t_5v_settle         =  1.156518e-03 targ=  7.156518e-03 trig=  6.000000e-03
t_3v3_settle        =  7.283056e-04 targ=  6.728306e-03 trig=  6.000000e-03


Total analysis time (seconds) = 0.078171

Total elapsed time (seconds) = 0.097 

Total DRAM available = 24576.000 MB.
DRAM currently available =  123.141 MB.
Maximum ngspice program size =   11.672 MB.
Current ngspice program size =   11.672 MB.

