
Note: No compatibility mode selected!


Circuit: TB8: Static Glow Condition Characterization

Doing analysis at TEMP = 27.000000 and TNOM = 27.000000

Using SPARSE 1.3 as Direct Linear Solver

No. of Data Rows : 121

  Measurements for DC Analysis

v_threshold         =   1.20867e+00

Doing analysis at TEMP = 27.000000 and TNOM = 27.000000

Using SPARSE 1.3 as Direct Linear Solver

No. of Data Rows : 121

  Measurements for DC Analysis

v_threshold         =   1.20867e+00


Total analysis time (seconds) = 0.001397

Total elapsed time (seconds) = 0.006 

Total DRAM available = 24576.000 MB.
DRAM currently available =  123.141 MB.
Maximum ngspice program size =   10.234 MB.
Current ngspice program size =   10.234 MB.

